
NAMED_EXPRESSIONS
#
# formation of O2 from H2O
# 2H2O =  O2 + 4H+ + 4e-
#
    Log_K_O2
        log_k      -85.9951
        -delta_H	559.543	kJ/mol	# Calculated enthalpy of reaction	O2
#	Enthalpy of formation:	-2.9 kcal/mol
            -analytic   38.0229    7.99407E-03   -2.7655e+004  -1.4506e+001  199838.45
#	Range:  0-300

SOLUTION_MASTER_SPECIES
#element	master species	alkalinity	gfw|formula	gfw of element	source
Acetate	HAcetate	0.0	Acetate	59.	#llnl.dat	False
Ag	Ag+	0.0	Ag	107.8682	#llnl.dat	False
Ag(+1)	Ag+	0.0	Ag	None	#llnl.dat	False
Ag(+2)	Ag+2	0.0	Ag	None	#llnl.dat	False
Al	Al+3	0.0	Al	26.9815	#llnl.dat	False
Alkalinity	HCO3-	1.0	Ca0.5(CO3)0.5	50.05	#llnl.dat	False
Am	Am+3	0.0	Am	243.0000	#llnl.dat	False
Am(+2)	Am+2	0.0	Am	None	#llnl.dat	False
Am(+3)	Am+3	0.0	Am	None	#llnl.dat	False
Am(+4)	Am+4	0.0	Am	None	#llnl.dat	False
Am(+5)	AmO2+	0.0	Am	None	#llnl.dat	False
Am(+6)	AmO2+2	0.0	Am	None	#llnl.dat	False
Ar	Ar	0.0	Ar	39.948	#llnl.dat	False
As	H2AsO4-	0.0	As	74.9216	#llnl.dat	False
As(-3)	AsH3	0.0	As	None	#llnl.dat	False
As(+3)	H2AsO3-	0.0	As	None	#llnl.dat	False
As(+5)	H2AsO4-	0.0	As	None	#llnl.dat	False
Au	Au+	0.0	Au	196.9665	#llnl.dat	False
Au(+1)	Au+	0.0	Au	None	#llnl.dat	False
Au(+3)	Au+3	0.0	Au	None	#llnl.dat	False
B	B(OH)3	0.0	B	10.811	#llnl.dat	False
B(+3)	B(OH)3	0.0	B	None	#llnl.dat	False
B(-5)	BH4-	0.0	B	None	#llnl.dat	False
Ba	Ba+2	0.0	Ba	137.3270	#llnl.dat	False
Be	Be+2	0.0	Be	9.0122	#llnl.dat	False
Br	Br-	0.0	Br	79.904	#llnl.dat	False
Br(-03)	Br3-	0.0	Br	None	#llnl.dat	False
Br(-1)	Br-	0.0	Br	None	#llnl.dat	False
Br(0)	Br2	0.0	Br	None	#llnl.dat	False
Br(+1)	BrO-	0.0	Br	None	#llnl.dat	False
Br(+5)	BrO3-	0.0	Br	None	#llnl.dat	False
Br(+7)	BrO4-	0.0	Br	None	#llnl.dat	False
C(-4)	CH4	0.0	CH4	None	#llnl.dat	False
C(-3)	C2H6	0.0	C2H6	None	#llnl.dat	False
C(-2)	C2H4	0.0	C2H4	None	#llnl.dat	False
C	HCO3-	1.0	HCO3	12.0110	#llnl.dat	False
C(+2)	CO	0.0	C	None	#llnl.dat	False
C(+4)	HCO3-	1.0	HCO3	None	#llnl.dat	False
Ca	Ca+2	0.0	Ca	40.078	#llnl.dat	False
Cyanide	Cyanide-	1.0	CN	26.	#llnl.dat	False
Cd	Cd+2	0.0	Cd	112.411	#llnl.dat	False
Ce	Ce+3	0.0	Ce	140.115	#llnl.dat	False
Ce(+2)	Ce+2	0.0	Ce	None	#llnl.dat	False
Ce(+3)	Ce+3	0.0	Ce	None	#llnl.dat	False
Ce(+4)	Ce+4	0.0	Ce	None	#llnl.dat	False
Cl	Cl-	0.0	Cl	35.4527	#llnl.dat	False
Cl(-1)	Cl-	0.0	Cl	None	#llnl.dat	False
Cl(+1)	ClO-	0.0	Cl	None	#llnl.dat	False
Cl(+3)	ClO2-	0.0	Cl	None	#llnl.dat	False
Cl(+5)	ClO3-	0.0	Cl	None	#llnl.dat	False
Cl(+7)	ClO4-	0.0	Cl	None	#llnl.dat	False
Co	Co+2	0.0	Co	58.9332	#llnl.dat	False
Co(+2)	Co+2	0.0	Co	None	#llnl.dat	False
Co(+3)	Co+3	0.0	Co	None	#llnl.dat	False
Cr	CrO4-2	0.0	CrO4-2	51.9961	#llnl.dat	False
Cr(+2)	Cr+2	0.0	Cr	None	#llnl.dat	False
Cr(+3)	Cr+3	0.0	Cr	None	#llnl.dat	False
Cr(+5)	CrO4-3	0.0	Cr	None	#llnl.dat	False
Cr(+6)	CrO4-2	0.0	Cr	None	#llnl.dat	False
Cs	Cs+	0.0	Cs	132.9054	#llnl.dat	False
Cu	Cu+2	0.0	Cu	63.546	#llnl.dat	False
Cu(+1)	Cu+1	0.0	Cu	None	#llnl.dat	False
Cu(+2)	Cu+2	0.0	Cu	None	#llnl.dat	False
Dy	Dy+3	0.0	Dy	162.50	#llnl.dat	False
Dy(+2)	Dy+2	0.0	Dy	None	#llnl.dat	False
Dy(+3)	Dy+3	0.0	Dy	None	#llnl.dat	False
E	e-	0.0	0.0	0.0	#llnl.dat	False
Er	Er+3	0.0	Er	167.26	#llnl.dat	False
Er(+2)	Er+2	0.0	Er	None	#llnl.dat	False
Er(+3)	Er+3	0.0	Er	None	#llnl.dat	False
Ethylene	Ethylene	0.0	Ethylene	28.0536	#llnl.dat	False
Eu	Eu+3	0.0	Eu	151.965	#llnl.dat	False
Eu(+2)	Eu+2	0.0	Eu	None	#llnl.dat	False
Eu(+3)	Eu+3	0.0	Eu	None	#llnl.dat	False
F	F-	0.0	F	18.9984	#llnl.dat	False
Fe	Fe+2	0.0	Fe	55.847	#llnl.dat	False
Fe(+2)	Fe+2	0.0	Fe	None	#llnl.dat	False
Fe(+3)	Fe+3	-2.0	Fe	None	#llnl.dat	False
Ga	Ga+3	0.0	Ga	69.723	#llnl.dat	False
Gd	Gd+3	0.0	Gd	157.25	#llnl.dat	False
Gd(+2)	Gd+2	0.0	Gd	None	#llnl.dat	False
Gd(+3)	Gd+3	0.0	Gd	None	#llnl.dat	False
H	H+	-1.0	H	1.0079	#llnl.dat	False
H(0)	H2	0.0	H	None	#llnl.dat	False
H(+1)	H+	-1.0	0.0	None	#llnl.dat	False
He	He	0.0	He	4.0026	#llnl.dat	False
He(0)	He	0.0	He	None	#llnl.dat	False
Hf	Hf+4	0.0	Hf	178.49	#llnl.dat	False
Hg	Hg+2	0.0	Hg	200.59	#llnl.dat	False
Hg(+1)	Hg2+2	0.0	Hg	None	#llnl.dat	False
Hg(+2)	Hg+2	0.0	Hg	None	#llnl.dat	False
Ho	Ho+3	0.0	Ho	164.9303	#llnl.dat	False
Ho(+2)	Ho+2	0.0	Ho	None	#llnl.dat	False
Ho(+3)	Ho+3	0.0	Ho	None	#llnl.dat	False
I	I-	0.0	I	126.9045	#llnl.dat	False
I(-03)	I3-	0.0	I	None	#llnl.dat	False
I(-1)	I-	0.0	I	None	#llnl.dat	False
I(+1)	IO-	0.0	I	None	#llnl.dat	False
I(+5)	IO3-	0.0	I	None	#llnl.dat	False
I(+7)	IO4-	0.0	I	None	#llnl.dat	False
In	In+3	0.0	In	114.82	#llnl.dat	False
K	K+	0.0	K	39.0983	#llnl.dat	False
Kr	Kr	0.0	Kr	83.80	#llnl.dat	False
Kr(0)	Kr	0.0	Kr	None	#llnl.dat	False
La	La+3	0.0	La	138.9055	#llnl.dat	False
La(+2)	La+2	0.0	La	None	#llnl.dat	False
La(+3)	La+3	0.0	La	None	#llnl.dat	False
Li	Li+	0.0	Li	6.9410	#llnl.dat	False
Lu	Lu+3	0.0	Lu	174.967	#llnl.dat	False
Mg	Mg+2	0.0	Mg	24.305	#llnl.dat	False
Mn	Mn+2	0.0	Mn	54.938	#llnl.dat	False
Mn(+2)	Mn+2	0.0	Mn	None	#llnl.dat	False
Mn(+3)	Mn+3	0.0	Mn	None	#llnl.dat	False
Mn(+6)	MnO4-2	0.0	Mn	None	#llnl.dat	False
Mn(+7)	MnO4-	0.0	Mn	None	#llnl.dat	False
Mo	MoO4-2	0.0	Mo	95.94	#llnl.dat	False
N	NH3	1.0	N	14.0067	#llnl.dat	False
N(-3)	NH3	1.0	N	None	#llnl.dat	False
N(-03)	N3-	0.0	N	None	#llnl.dat	False
N(0)	N2	0.0	N	None	#llnl.dat	False
N(+3)	NO2-	0.0	N	None	#llnl.dat	False
N(+5)	NO3-	0.0	N	None	#llnl.dat	False
Na	Na+	0.0	Na	22.9898	#llnl.dat	False
Nd	Nd+3	0.0	Nd	144.24	#llnl.dat	False
Nd(+2)	Nd+2	0.0	Nd	None	#llnl.dat	False
Nd(+3)	Nd+3	0.0	Nd	None	#llnl.dat	False
Ne	Ne	0.0	Ne	20.1797	#llnl.dat	False
Ni	Ni+2	0.0	Ni	58.69	#llnl.dat	False
Np	Np+4	0.0	Np	237.048	#llnl.dat	False
Np(+3)	Np+3	0.0	Np	None	#llnl.dat	False
Np(+4)	Np+4	0.0	Np	None	#llnl.dat	False
Np(+5)	NpO2+	0.0	Np	None	#llnl.dat	False
Np(+6)	NpO2+2	0.0	Np	None	#llnl.dat	False
O	H2O	0.0	O	15.994	#llnl.dat	False
O(-2)	H2O	0.0	0.0	None	#llnl.dat	False
O(0)	O2	0.0	O	None	#llnl.dat	False
O_phthalate	O_phthalate-2	0.0	1	1	#llnl.dat	False
P	HPO4-2	2.0	P	30.9738	#llnl.dat	False
P(-3)	PH4+	0.0	P	None	#llnl.dat	False
P(+5)	HPO4-2	2.0	P	None	#llnl.dat	False
Pb	Pb+2	0.0	Pb	207.20	#llnl.dat	False
Pb(+2)	Pb+2	0.0	Pb	None	#llnl.dat	False
Pb(+4)	Pb+4	0.0	Pb	None	#llnl.dat	False
Pd	Pd+2	0.0	Pd	106.42	#llnl.dat	False
Pm	Pm+3	0.0	Pm	147.00	#llnl.dat	False
Pm(+2)	Pm+2	0.0	Pm	None	#llnl.dat	False
Pm(+3)	Pm+3	0.0	Pm	None	#llnl.dat	False
Pr	Pr+3	0.0	Pr	140.9076	#llnl.dat	False
Pr(+2)	Pr+2	0.0	Pr	None	#llnl.dat	False
Pr(+3)	Pr+3	0.0	Pr	None	#llnl.dat	False
Pu	Pu+4	0.0	Pu	244.00	#llnl.dat	False
Pu(+3)	Pu+3	0.0	Pu	None	#llnl.dat	False
Pu(+4)	Pu+4	0.0	Pu	None	#llnl.dat	False
Pu(+5)	PuO2+	0.0	Pu	None	#llnl.dat	False
Pu(+6)	PuO2+2	0.0	Pu	None	#llnl.dat	False
Ra	Ra+2	0.0	Ra	226.025	#llnl.dat	False
Rb	Rb+	0.0	Rb	85.4678	#llnl.dat	False
Re	ReO4-	0.0	Re	186.207	#llnl.dat	False
Rn	Rn	0.0	Rn	222.00	#llnl.dat	False
Ru	RuO4-2	0.0	Ru	101.07	#llnl.dat	False
Ru(+2)	Ru+2	0.0	Ru	None	#llnl.dat	False
Ru(+3)	Ru+3	0.0	Ru	None	#llnl.dat	False
Ru(+4)	Ru(OH)2+2	0.0	Ru	None	#llnl.dat	False
Ru(+6)	RuO4-2	0.0	Ru	None	#llnl.dat	False
Ru(+7)	RuO4-	0.0	Ru	None	#llnl.dat	False
Ru(+8)	RuO4	0.0	Ru	None	#llnl.dat	False
S	SO4-2	0.0	SO4	32.066	#llnl.dat	False
S(-2)	HS-	1.0	S	None	#llnl.dat	False
S(+2)	S2O3-2	0.0	S	None	#llnl.dat	False
S(+3)	S2O4-2	0.0	S	None	#llnl.dat	False
S(+4)	SO3-2	0.0	S	None	#llnl.dat	False
S(+5)	S2O5-2	0.0	S	None	#llnl.dat	False
S(+6)	SO4-2	0.0	SO4	None	#llnl.dat	False
S(+7)	S2O8-2	0.0	S	None	#llnl.dat	False
S(+8)	HSO5-	0.0	S	None	#llnl.dat	False
Sb	Sb(OH)3	0.0	Sb	121.75	#llnl.dat	False
Sc	Sc+3	0.0	Sc	44.9559	#llnl.dat	False
Se	SeO3-2	0.0	Se	78.96	#llnl.dat	False
Se(-2)	HSe-	0.0	Se	None	#llnl.dat	False
Se(+4)	SeO3-2	0.0	Se	None	#llnl.dat	False
Se(+6)	SeO4-2	0.0	Se	None	#llnl.dat	False
Si	SiO2	0.0	SiO2	28.0855	#llnl.dat	False
Sm	Sm+3	0.0	Sm	150.36	#llnl.dat	False
Sm(+2)	Sm+2	0.0	Sm	None	#llnl.dat	False
Sm(+3)	Sm+3	0.0	Sm	None	#llnl.dat	False
Sn	Sn+2	0.0	Sn	118.71	#llnl.dat	False
Sn(+2)	Sn+2	0.0	Sn	None	#llnl.dat	False
Sn(+4)	Sn+4	0.0	Sn	None	#llnl.dat	False
Sr	Sr+2	0.0	Sr	87.62	#llnl.dat	False
Tb	Tb+3	0.0	Tb	158.9253	#llnl.dat	False
Tb(+2)	Tb+2	0.0	Tb	None	#llnl.dat	False
Tb(+3)	Tb+3	0.0	Tb	None	#llnl.dat	False
Tc	TcO4-	0.0	Tc	98.00	#llnl.dat	False
Tc(+3)	Tc+3	0.0	Tc	None	#llnl.dat	False
Tc(+4)	TcO+2	0.0	Tc	None	#llnl.dat	False
Tc(+5)	TcO4-3	0.0	Tc	None	#llnl.dat	False
Tc(+6)	TcO4-2	0.0	Tc	None	#llnl.dat	False
Tc(+7)	TcO4-	0.0	Tc	None	#llnl.dat	False
Thiocyanate	Thiocyanate-	0.0	SCN	58.	#llnl.dat	False
Th	Th+4	0.0	Th	232.0381	#llnl.dat	False
Ti	Ti(OH)4	0.0	Ti	47.88	#llnl.dat	False
Tl	Tl+	0.0	Tl	204.3833	#llnl.dat	False
Tl(+1)	Tl+	0.0	Tl	None	#llnl.dat	False
Tl(+3)	Tl+3	0.0	Tl	None	#llnl.dat	False
Tm	Tm+3	0.0	Tm	168.9342	#llnl.dat	False
Tm(+2)	Tm+2	0.0	Tm	None	#llnl.dat	False
Tm(+3)	Tm+3	0.0	Tm	None	#llnl.dat	False
U	UO2+2	0.0	U	238.0289	#llnl.dat	False
U(+3)	U+3	0.0	U	None	#llnl.dat	False
U(+4)	U+4	0.0	U	None	#llnl.dat	False
U(+5)	UO2+	0.0	U	None	#llnl.dat	False
U(+6)	UO2+2	0.0	U	None	#llnl.dat	False
V	VO+2	0.0	V	50.9415	#llnl.dat	False
V(+3)	V+3	0.0	V	None	#llnl.dat	False
V(+4)	VO+2	0.0	V	None	#llnl.dat	False
V(+5)	VO2+	0.0	V	None	#llnl.dat	False
W	WO4-2	0.0	W	183.85	#llnl.dat	False
Xe	Xe	0.0	Xe	131.29	#llnl.dat	False
Xe(0)	Xe	0.0	Xe	None	#llnl.dat	False
Y	Y+3	0.0	Y	88.9059	#llnl.dat	False
Yb	Yb+3	0.0	Yb	173.04	#llnl.dat	False
Yb(+2)	Yb+2	0.0	Yb	None	#llnl.dat	False
Yb(+3)	Yb+3	0.0	Yb	None	#llnl.dat	False
Zn	Zn+2	0.0	Zn	65.39	#llnl.dat	False
Zr	Zr(OH)2+2	0.0	Zr	91.224	#llnl.dat	False
Hdg	Hdg	0.0	Hdg	2.016	#pitzer.dat	False
Oxg	Oxg	0.0	Oxg	32	#pitzer.dat	False
Mtg	Mtg	0.0	Mtg	16.032	#pitzer.dat	False
Sg	H2Sg	1.0	H2Sg	34.08	#pitzer.dat	False
Ntg	Ntg	0.0	Ntg	28.0134	#pitzer.dat	False

SOLUTION_SPECIES
HAcetate = HAcetate
	log_k	0.0
	-delta_h	0 kJ/mol 
	# source	llnl.dat
Ag+ = Ag+
	log_k	0.0
	-delta_h	0 kJ/mol 
	# source	llnl.dat
Al+3 = Al+3
	log_k	0.0
	-delta_h	0 kJ/mol 
	# source	llnl.dat
Am+3 = Am+3
	log_k	0.0
	-delta_h	0 kJ/mol 
	# source	llnl.dat
Ar = Ar
	log_k	0.0
	-delta_h	0 kJ/mol 
	# source	llnl.dat
Au+ = Au+
	log_k	0.0
	-delta_h	0 kJ/mol 
	# source	llnl.dat
B(OH)3 = B(OH)3
	log_k	0.0
	-delta_h	0 kJ/mol 
	# source	llnl.dat
Ba+2 = Ba+2
	log_k	0.0
	-delta_h	0 kJ/mol 
	# source	llnl.dat
Be+2 = Be+2
	log_k	0.0
	-delta_h	0 kJ/mol 
	# source	llnl.dat
Br- = Br-
	log_k	0.0
	-delta_h	0 kJ/mol 
	# source	llnl.dat
Ca+2 = Ca+2
	log_k	0.0
	-delta_h	0 kJ/mol 
	# source	llnl.dat
Cd+2 = Cd+2
	log_k	0.0
	-delta_h	0 kJ/mol 
	# source	llnl.dat
Ce+3 = Ce+3
	log_k	0.0
	-delta_h	0 kJ/mol 
	# source	llnl.dat
Cl- = Cl-
	log_k	0.0
	-delta_h	0 kJ/mol 
	# source	llnl.dat
Co+2 = Co+2
	log_k	0.0
	-delta_h	0 kJ/mol 
	# source	llnl.dat
CrO4-2 = CrO4-2
	log_k	0.0
	-delta_h	0 kJ/mol 
	# source	llnl.dat
Cs+ = Cs+
	log_k	0.0
	-delta_h	0 kJ/mol 
	# source	llnl.dat
Cu+2 = Cu+2
	log_k	0.0
	-delta_h	0 kJ/mol 
	# source	llnl.dat
Dy+3 = Dy+3
	log_k	0.0
	-delta_h	0 kJ/mol 
	# source	llnl.dat
e- = e-
	log_k	0.0
	-delta_h	0 kJ/mol 
	# source	llnl.dat
Er+3 = Er+3
	log_k	0.0
	-delta_h	0 kJ/mol 
	# source	llnl.dat
Ethylene = Ethylene
	log_k	0.0
	-delta_h	0 kJ/mol 
	# source	llnl.dat
Eu+3 = Eu+3
	log_k	0.0
	-delta_h	0 kJ/mol 
	# source	llnl.dat
F- = F-
	log_k	0.0
	-delta_h	0 kJ/mol 
	# source	llnl.dat
Fe+2 = Fe+2
	log_k	0.0
	-delta_h	0 kJ/mol 
	# source	llnl.dat
Ga+3 = Ga+3
	log_k	0.0
	-delta_h	0 kJ/mol 
	# source	llnl.dat
Gd+3 = Gd+3
	log_k	0.0
	-delta_h	0 kJ/mol 
	# source	llnl.dat
H+ = H+
	log_k	0.0
	-delta_h	0 kJ/mol 
	# source	llnl.dat
He = He
	log_k	0.0
	-delta_h	0 kJ/mol 
	# source	llnl.dat
H2AsO4- = H2AsO4-
	log_k	0.0
	-delta_h	0 kJ/mol 
	# source	llnl.dat
HCO3- = HCO3-
	log_k	0.0
	-delta_h	0 kJ/mol 
	# source	llnl.dat
HPO4-2 = HPO4-2
	log_k	0.0
	-delta_h	0 kJ/mol 
	# source	llnl.dat
Hf+4 = Hf+4
	log_k	0.0
	-delta_h	0 
	# source	llnl.dat
Hg+2 = Hg+2
	log_k	0.0
	-delta_h	0 kJ/mol 
	# source	llnl.dat
Ho+3 = Ho+3
	log_k	0.0
	-delta_h	0 kJ/mol 
	# source	llnl.dat
I- = I-
	log_k	0.0
	-delta_h	0 kJ/mol 
	# source	llnl.dat
In+3 = In+3
	log_k	0.0
	-delta_h	0 kJ/mol 
	# source	llnl.dat
K+ = K+
	log_k	0.0
	-delta_h	0 kJ/mol 
	# source	llnl.dat
Kr = Kr
	log_k	0.0
	-delta_h	0 kJ/mol 
	# source	llnl.dat
La+3 = La+3
	log_k	0.0
	-delta_h	0 kJ/mol 
	# source	llnl.dat
Li+ = Li+
	log_k	0.0
	-delta_h	0 kJ/mol 
	# source	llnl.dat
Lu+3 = Lu+3
	log_k	0.0
	-delta_h	0 kJ/mol 
	# source	llnl.dat
Mg+2 = Mg+2
	log_k	0.0
	-delta_h	0 kJ/mol 
	# source	llnl.dat
Mn+2 = Mn+2
	log_k	0.0
	-delta_h	0 kJ/mol 
	# source	llnl.dat
MoO4-2 = MoO4-2
	log_k	0.0
	-delta_h	0 kJ/mol 
	# source	llnl.dat
NH3 = NH3
	log_k	0.0
	-delta_h	0 kJ/mol 
	# source	llnl.dat
Na+ = Na+
	log_k	0.0
	-delta_h	0 kJ/mol 
	# source	llnl.dat
Nd+3 = Nd+3
	log_k	0.0
	-delta_h	0 kJ/mol 
	# source	llnl.dat
Ne = Ne
	log_k	0.0
	-delta_h	0 kJ/mol 
	# source	llnl.dat
Ni+2 = Ni+2
	log_k	0.0
	-delta_h	0 kJ/mol 
	# source	llnl.dat
Np+4 = Np+4
	log_k	0.0
	-delta_h	0 kJ/mol 
	# source	llnl.dat
H2O = H2O
	log_k	0.0
	-delta_h	0 kJ/mol 
	# source	llnl.dat
O_phthalate-2 = O_phthalate-2
	log_k	0.0
	-delta_h	0 
	# source	llnl.dat
Pb+2 = Pb+2
	log_k	0.0
	-delta_h	0 kJ/mol 
	# source	llnl.dat
Pd+2 = Pd+2
	log_k	0.0
	-delta_h	0 kJ/mol 
	# source	llnl.dat
Pm+3 = Pm+3
	log_k	0.0
	-delta_h	0 kJ/mol 
	# source	llnl.dat
Pr+3 = Pr+3
	log_k	0.0
	-delta_h	0 kJ/mol 
	# source	llnl.dat
Pu+4 = Pu+4
	log_k	0.0
	-delta_h	0 kJ/mol 
	# source	llnl.dat
Ra+2 = Ra+2
	log_k	0.0
	-delta_h	0 kJ/mol 
	# source	llnl.dat
Rb+ = Rb+
	log_k	0.0
	-delta_h	0 kJ/mol 
	# source	llnl.dat
ReO4- = ReO4-
	log_k	0.0
	-delta_h	0 kJ/mol 
	# source	llnl.dat
Rn = Rn
	log_k	0.0
	-delta_h	0 kJ/mol 
	# source	llnl.dat
RuO4-2 = RuO4-2
	log_k	0.0
	-delta_h	0 kJ/mol 
	# source	llnl.dat
SO4-2 = SO4-2
	log_k	0.0
	-delta_h	0 kJ/mol 
	# source	llnl.dat
Sb(OH)3 = Sb(OH)3
	log_k	0.0
	-delta_h	0 kJ/mol 
	# source	llnl.dat
Sc+3 = Sc+3
	log_k	0.0
	-delta_h	0 kJ/mol 
	# source	llnl.dat
SeO3-2 = SeO3-2
	log_k	0.0
	-delta_h	0 kJ/mol 
	# source	llnl.dat
SiO2 = SiO2
	log_k	0.0
	-delta_h	0 kJ/mol 
	# source	llnl.dat
Sm+3 = Sm+3
	log_k	0.0
	-delta_h	0 kJ/mol 
	# source	llnl.dat
Sn+2 = Sn+2
	log_k	0.0
	-delta_h	0 kJ/mol 
	# source	llnl.dat
Sr+2 = Sr+2
	log_k	0.0
	-delta_h	0 kJ/mol 
	# source	llnl.dat
Tb+3 = Tb+3
	log_k	0.0
	-delta_h	0 kJ/mol 
	# source	llnl.dat
TcO4- = TcO4-
	log_k	0.0
	-delta_h	0 kJ/mol 
	# source	llnl.dat
Th+4 = Th+4
	log_k	0.0
	-delta_h	0 kJ/mol 
	# source	llnl.dat
Ti(OH)4 = Ti(OH)4
	log_k	0.0
	-delta_h	0 
	# source	llnl.dat
Tl+ = Tl+
	log_k	0.0
	-delta_h	0 kJ/mol 
	# source	llnl.dat
Tm+3 = Tm+3
	log_k	0.0
	-delta_h	0 kJ/mol 
	# source	llnl.dat
UO2+2 = UO2+2
	log_k	0.0
	-delta_h	0 kJ/mol 
	# source	llnl.dat
VO+2 = VO+2
	log_k	0.0
	-delta_h	0 kJ/mol 
	# source	llnl.dat
WO4-2 = WO4-2
	log_k	0.0
	-delta_h	0 kJ/mol 
	# source	llnl.dat
Xe = Xe
	log_k	0.0
	-delta_h	0 kJ/mol 
	# source	llnl.dat
Y+3 = Y+3
	log_k	0.0
	-delta_h	0 kJ/mol 
	# source	llnl.dat
Yb+3 = Yb+3
	log_k	0.0
	-delta_h	0 kJ/mol 
	# source	llnl.dat
Zn+2 = Zn+2
	log_k	0.0
	-delta_h	0 kJ/mol 
	# source	llnl.dat
Zr(OH)2+2 = Zr(OH)2+2
	log_k	0.0
	-delta_h	0 kJ/mol 
	# source	llnl.dat
2H2O = O2 + 4H+ + 4e-
	log_k	-85.9951
	-delta_h	559.543 kJ/mol 
	# source	llnl.dat
SO4-2 + H+ = HS- +2O2
	log_k	-138.3169
	-delta_h	869.226 kJ/mol 
	# source	llnl.dat
.5000 O2 + 2HS- = S2-2 + H2O
	log_k	33.2673
	-delta_h	0 
	# source	llnl.dat
2H+ + 2SO3-2 = S2O3-2 + O2 + H2O
	log_k	-40.2906
	-delta_h	0 
	# source	llnl.dat
H+ + Ag+ + 0.2500 O2 = Ag+2 +0.5000 H2O
	log_k	-12.1244
	-delta_h	22.9764 kJ/mol 
	# source	llnl.dat
Am+3 + 0.5000 H2O = Am+2 +H+ +0.2500 O2
	log_k	-60.3792
	-delta_h	401.953 kJ/mol 
	# source	llnl.dat
H+ + Am+3 + 0.2500 O2 = Am+4 +0.5000 H2O
	log_k	-22.7073
	-delta_h	70.8142 kJ/mol 
	# source	llnl.dat
H2O + Am+3 + 0.5000 O2 = AmO2+ +2H+
	log_k	-15.384
	-delta_h	104.345 kJ/mol 
	# source	llnl.dat
Am+3 + 0.7500 O2 + 0.5000 H2O = AmO2+2 +H+
	log_k	-20.862
	-delta_h	117.959 kJ/mol 
	# source	llnl.dat
H2AsO4- + H+ = AsH3 +2O2
	log_k	-155.1907
	-delta_h	931.183 kJ/mol 
	# source	llnl.dat
2H+ + Au+ + 0.5000 O2 = Au+3 +H2O
	log_k	-4.3506
	-delta_h	-73.2911 kJ/mol 
	# source	llnl.dat
H2O + B(OH)3 = BH4- +2O2 +H+
	log_k	-237.1028
	-delta_h	1384.24 kJ/mol 
	# source	llnl.dat
3Br- + 2H+ + 0.5000 O2 = Br3- +H2O
	log_k	7.0696
	-delta_h	-45.6767 kJ/mol 
	# source	llnl.dat
Br- + 0.5000 O2 = BrO-
	log_k	-10.9167
	-delta_h	33.4302 kJ/mol 
	# source	llnl.dat
1.5000 O2 + Br- = BrO3-
	log_k	-17.1443
	-delta_h	72.6342 kJ/mol 
	# source	llnl.dat
2O2 + Br- = BrO4-
	log_k	-33.104
	-delta_h	158.741 kJ/mol 
	# source	llnl.dat
Cyanide- = Cyanide-
	log_k	0.0
	# source	llnl.dat
H+ + HCO3- + H2O = CH4 + 2O2
	log_k	-144.1412
	-delta_h	863.599 kJ/mol 
	# source	llnl.dat
2H+ + 2HCO3- + H2O = C2H6 + 3.5000 O2
	log_k	-228.6072
	-delta_h	0 
	# source	llnl.dat
2H+ + 2HCO3- = C2H4 + 3O2
	log_k	-254.5034
	-delta_h	1446.6 kJ/mol 
	# source	llnl.dat
HCO3- + H+ = CO +H2O +0.5000 O2
	log_k	-41.7002
	-delta_h	277.069 kJ/mol 
	# source	llnl.dat
Ce+3 + 0.5000 H2O = Ce+2 +H+ +0.2500 O2
	log_k	-83.6754
	-delta_h	0 
	# source	llnl.dat
H+ + Ce+3 + 0.2500 O2 = Ce+4 +0.5000 H2O
	log_k	-7.9154
	-delta_h	0 
	# source	llnl.dat
Cl- + 0.5000 O2 = ClO-
	log_k	-15.1014
	-delta_h	66.0361 kJ/mol 
	# source	llnl.dat
O2 + Cl- = ClO2-
	log_k	-23.108
	-delta_h	112.688 kJ/mol 
	# source	llnl.dat
1.5000 O2 + Cl- = ClO3-
	log_k	-17.2608
	-delta_h	81.3077 kJ/mol 
	# source	llnl.dat
2O2 + Cl- = ClO4-
	log_k	-15.7091
	-delta_h	62.0194 kJ/mol 
	# source	llnl.dat
H+ + Co+2 + 0.2500 O2 = Co+3 +0.5000 H2O
	log_k	-11.4845
	-delta_h	10.3198 kJ/mol 
	# source	llnl.dat
4H+ + CrO4-2 = Cr+2 +2H2O +O2
	log_k	-21.6373
	-delta_h	153.829 kJ/mol 
	# source	llnl.dat
5H+ + CrO4-2 = Cr+3 +2.5000 H2O +0.7500 O2
	log_k	8.3842
	-delta_h	-81.0336 kJ/mol 
	# source	llnl.dat
0.5000 H2O + CrO4-2 = CrO4-3 +H+ +0.2500 O2
	log_k	-19.7709
	-delta_h	0 
	# source	llnl.dat
Cu+2 + 0.5000 H2O = Cu+ +H+ +0.2500 O2
	log_k	-18.7704
	-delta_h	145.877 kJ/mol 
	# source	llnl.dat
Dy+3 + 0.5000 H2O = Dy+2 +H+ +0.2500 O2
	log_k	-61.0754
	-delta_h	0 
	# source	llnl.dat
Er+3 + 0.5000 H2O = Er+2 +H+ +0.2500 O2
	log_k	-70.1754
	-delta_h	0 
	# source	llnl.dat
Eu+3 + 0.5000 H2O = Eu+2 +H+ +0.2500 O2
	log_k	-27.5115
	-delta_h	217.708 kJ/mol 
	# source	llnl.dat
H+ + Fe+2 + 0.2500 O2 = Fe+3 +0.5000 H2O
	log_k	8.4899
	-delta_h	-97.209 kJ/mol 
	# source	llnl.dat
Gd+3 + 0.5000 H2O = Gd+2 +H+ +0.2500 O2
	log_k	-84.6754
	-delta_h	0 
	# source	llnl.dat
H2O = H2 +0.5000 O2
	log_k	-46.1066
	-delta_h	275.588 kJ/mol 
	# source	llnl.dat
H2AsO4- = H2AsO3- +0.5000 O2
	log_k	-30.5349
	-delta_h	188.698 kJ/mol 
	# source	llnl.dat
SO4-2 + H+ + 0.5000 O2 = HSO5-
	log_k	-17.2865
	-delta_h	140.038 kJ/mol 
	# source	llnl.dat
SeO3-2 + H+ = HSe- +1.5000 O2
	log_k	-76.8418
	-delta_h	506.892 kJ/mol 
	# source	llnl.dat
2Hg+2 + H2O = Hg2+2 +2H+ +0.5000 O2
	log_k	-12.208
	-delta_h	106.261 kJ/mol 
	# source	llnl.dat
Ho+3 + 0.5000 H2O = Ho+2 +H+ +0.2500 O2
	log_k	-67.3754
	-delta_h	0 
	# source	llnl.dat
3I- + 2H+ + 0.5000 O2 = I3- +H2O
	log_k	24.7278
	-delta_h	-160.528 kJ/mol 
	# source	llnl.dat
I- + 0.5000 O2 = IO-
	log_k	-0.9038
	-delta_h	-44.5596 kJ/mol 
	# source	llnl.dat
1.5000 O2 + I- = IO3-
	log_k	17.6809
	-delta_h	-146.231 kJ/mol 
	# source	llnl.dat
2O2 + I- = IO4-
	log_k	6.9621
	-delta_h	-70.2912 kJ/mol 
	# source	llnl.dat
La+3 + 0.5000 H2O = La+2 +H+ +0.2500 O2
	log_k	-72.4754
	-delta_h	0 
	# source	llnl.dat
Mn+2 + H+ + 0.2500 O2 = Mn+3 +0.5000 H2O
	log_k	-4.0811
	-delta_h	-65.2892 kJ/mol 
	# source	llnl.dat
2H2O + O2 + Mn+2 = MnO4-2 +4H+
	log_k	-32.4146
	-delta_h	151.703 kJ/mol 
	# source	llnl.dat
2NH3 + 1.5000 O2 = N2 +3H2O
	log_k	116.4609
	-delta_h	-687.08 kJ/mol 
	# source	llnl.dat
3NH3 + 2O2 = N3- +4H2O +H+
	log_k	96.968
	-delta_h	-599.935 kJ/mol 
	# source	llnl.dat
1.5000 O2 + NH3 = NO2- +H+ +H2O
	log_k	46.8653
	-delta_h	-290.901 kJ/mol 
	# source	llnl.dat
2O2 + NH3 = NO3- +H+ +H2O
	log_k	62.1001
	-delta_h	-387.045 kJ/mol 
	# source	llnl.dat
Nd+3 + 0.5000 H2O = Nd+2 +H+ +0.2500 O2
	log_k	-64.3754
	-delta_h	0 
	# source	llnl.dat
Np+4 + 0.5000 H2O = Np+3 +H+ +0.2500 O2
	log_k	-19.0131
	-delta_h	168.787 kJ/mol 
	# source	llnl.dat
1.5000 H2O + Np+4 + 0.2500 O2 = NpO2+ +3H+
	log_k	10.5928
	-delta_h	9.80089 kJ/mol 
	# source	llnl.dat
Np+4 + H2O + 0.5000 O2 = NpO2+2 +2H+
	log_k	11.2107
	-delta_h	-12.5719 kJ/mol 
	# source	llnl.dat
2H+ + Pb+2 + 0.5000 O2 = Pb+4 +H2O
	log_k	-14.1802
	-delta_h	0 
	# source	llnl.dat
Pm+3 + 0.5000 H2O = Pm+2 +H+ +0.2500 O2
	log_k	-65.2754
	-delta_h	0 
	# source	llnl.dat
Pr+3 + 0.5000 H2O = Pr+2 +H+ +0.2500 O2
	log_k	-79.9754
	-delta_h	0 
	# source	llnl.dat
Pu+4 + 0.5000 H2O = Pu+3 +H+ +0.2500 O2
	log_k	-4.5071
	-delta_h	84.2268 kJ/mol 
	# source	llnl.dat
1.5000 H2O + Pu+4 + 0.2500 O2 = PuO2+ +3H+
	log_k	2.9369
	-delta_h	53.5009 kJ/mol 
	# source	llnl.dat
Pu+4 + H2O + 0.5000 O2 = PuO2+2 +2H+
	log_k	8.1273
	-delta_h	6.22013 kJ/mol 
	# source	llnl.dat
4H+ + RuO4-2 = Ru(OH)2+2 +H2O +0.5000 O2
	log_k	25.247
	-delta_h	0 
	# source	llnl.dat
4H+ + RuO4-2 = Ru+2 +2H2O +O2
	log_k	0.161
	-delta_h	0 
	# source	llnl.dat
5H+ + RuO4-2 = Ru+3 +2.5000 H2O +0.7500 O2
	log_k	17.6149
	-delta_h	0 
	# source	llnl.dat
2H+ + RuO4-2 + 0.5000 O2 = RuO4 +H2O
	log_k	16.2672
	-delta_h	-60.8385 kJ/mol 
	# source	llnl.dat
RuO4-2 + H+ + 0.2500 O2 = RuO4- +0.5000 H2O
	log_k	11.6024
	-delta_h	-16.1998 kJ/mol 
	# source	llnl.dat
2H+ + 2SO3-2 = S2O4-2 + .500 O2 + H2O
	log_k	-25.2076
	-delta_h	0 
	# source	llnl.dat
2SO3-2 = S2O6-2 + 2e-
	log_k	41.8289
	-delta_h	0 
	add_logk	Log_K_O2 0.5 
	# source	llnl.dat
2SO3-2 + 1.500 O2 + 2H+ = S2O8-2 + H2O
	log_k	70.7489
	-delta_h	0 
	# source	llnl.dat
O2 + H+ + 3HS- = S3-2 + 2H2O
	log_k	79.3915
	-delta_h	0 
	# source	llnl.dat
3SO3-2 + 6 H+ + 2e- = S3O6-2 + 3H2O
	log_k	-6.2316
	-delta_h	0 
	add_logk	Log_K_O2 -0.5 
	# source	llnl.dat
1.5000 O2 + 2H+ + 4HS- = S4-2 + 3H2O
	log_k	125.2958
	-delta_h	0 
	# source	llnl.dat
4 SO3-2 + 12 H+ + 6e- = S4O6-2 + 6H2O
	log_k	-38.3859
	-delta_h	0 
	add_logk	Log_K_O2 -1.5 
	# source	llnl.dat
2O2 + 3H+ + 5HS- = S5-2 + 4H2O
	log_k	170.9802
	-delta_h	0 
	# source	llnl.dat
5SO3-2 + 18H+ + 10e- = S5O6-2 + 9H2O
	log_k	-99.4206
	-delta_h	0 
	add_logk	Log_K_O2 -2.5 
	# source	llnl.dat
Thiocyanate- = Thiocyanate-
	log_k	0.0
	# source	llnl.dat
SO4-2 = SO3-2 +0.5000 O2
	log_k	-46.6244
	-delta_h	267.985 kJ/mol 
	# source	llnl.dat
HSe- = Se-2 + H+
	log_k	-14.9534
	-delta_h	0 
	# source	llnl.dat
SeO3-2 + 0.5000 O2 = SeO4-2
	log_k	13.9836
	-delta_h	-83.8892 kJ/mol 
	# source	llnl.dat
Sm+3 + 0.5000 H2O = Sm+2 +H+ +0.2500 O2
	log_k	-47.9624
	-delta_h	326.911 kJ/mol 
	# source	llnl.dat
2H+ + Sn+2 + 0.5000 O2 = Sn+4 +H2O
	log_k	37.702
	-delta_h	-240.739 kJ/mol 
	# source	llnl.dat
Tb+3 + 0.5000 H2O = Tb+2 +H+ +0.2500 O2
	log_k	-78.7754
	-delta_h	0 
	# source	llnl.dat
4H+ + TcO4- = Tc+3 +2H2O +O2
	log_k	-47.614
	-delta_h	0 
	# source	llnl.dat
3H+ + TcO4- = TcO+2 +1.5000 H2O +0.7500 O2
	log_k	-31.5059
	-delta_h	0 
	# source	llnl.dat
TcO4- + 0.5000 H2O = TcO4-2 +H+ +0.2500 O2
	log_k	-31.8197
	-delta_h	0 
	# source	llnl.dat
TcO4- + H2O = TcO4-3 +2H+ +0.5000 O2
	log_k	-63.2889
	-delta_h	0 
	# source	llnl.dat
2H+ + Tl+ + 0.5000 O2 = Tl+3 +H2O
	log_k	-0.2751
	-delta_h	-88.479 kJ/mol 
	# source	llnl.dat
Tm+3 + 0.5000 H2O = Tm+2 +H+ +0.2500 O2
	log_k	-58.3754
	-delta_h	0 
	# source	llnl.dat
UO2+2 + H+ = U+3 +0.7500 O2 +0.5000 H2O
	log_k	-64.8028
	-delta_h	377.881 kJ/mol 
	# source	llnl.dat
2H+ + UO2+2 = U+4 +H2O +0.5000 O2
	log_k	-33.9491
	-delta_h	135.895 kJ/mol 
	# source	llnl.dat
UO2+2 + 0.5000 H2O = UO2+ +H+ +0.2500 O2
	log_k	-20.0169
	-delta_h	133.759 kJ/mol 
	# source	llnl.dat
VO+2 + H+ = V+3 +0.5000 H2O +0.2500 O2
	log_k	-15.7191
	-delta_h	79.6069 kJ/mol 
	# source	llnl.dat
VO+2 + 0.5000 H2O + 0.2500 O2 = VO2+ +H+
	log_k	4.5774
	-delta_h	-17.2234 kJ/mol 
	# source	llnl.dat
VO2+ + 2H2O = VO4-3 +4H+
	log_k	-28.4475
	-delta_h	0 
	# source	llnl.dat
Yb+3 + 0.5000 H2O = Yb+2 +H+ +0.2500 O2
	log_k	-39.4595
	-delta_h	280.05 kJ/mol 
	# source	llnl.dat
2H+ + Zr(OH)2+2 = Zr+4 +2H2O
	log_k	0.2385
	-delta_h	0 
	# source	llnl.dat
4HS- + 4H+ + 2Sb(OH)3 + 2NH3 = (NH4)2Sb2S4 +6H2O
	log_k	67.649
	-delta_h	-424.665 kJ/mol 
	# source	llnl.dat
2NpO2+2 + 2H2O = (NpO2)2(OH)2+2 +2H+
	log_k	-6.4
	-delta_h	45.4397 kJ/mol 
	# source	llnl.dat
5H2O + 3NpO2+2 = (NpO2)3(OH)5+ +5H+
	log_k	-17.5
	-delta_h	112.322 kJ/mol 
	# source	llnl.dat
2PuO2+2 + 2H2O = (PuO2)2(OH)2+2 +2H+
	log_k	-8.2626
	-delta_h	57.8597 kJ/mol 
	# source	llnl.dat
5H2O + 3PuO2+2 = (PuO2)3(OH)5+ +5H+
	log_k	-21.655
	-delta_h	139.617 kJ/mol 
	# source	llnl.dat
4H2O + 2TcO+2 = (TcO(OH)2)2 +4H+
	log_k	-0.1271
	-delta_h	0 
	# source	llnl.dat
12H2O + 11UO2+2 + 6HCO3- = (UO2)11(CO3)6(OH)12-2 +18H+
	log_k	-25.7347
	-delta_h	0 
	# source	llnl.dat
2UO2+2 + 2H2O = (UO2)2(OH)2+2 +2H+
	log_k	-5.6346
	-delta_h	37.6127 kJ/mol 
	# source	llnl.dat
3H2O + 2UO2+2 + HCO3- = (UO2)2CO3(OH)3- +4H+
	log_k	-11.2229
	-delta_h	0 
	# source	llnl.dat
2UO2+2 + H2O = (UO2)2OH+3 +H+
	log_k	-2.7072
	-delta_h	0 
	# source	llnl.dat
6HCO3- + 3UO2+2 = (UO2)3(CO3)6-6 +6H+
	log_k	-8.0601
	-delta_h	25.5204 kJ/mol 
	# source	llnl.dat
4H2O + 3UO2+2 = (UO2)3(OH)4+2 +4H+
	log_k	-11.929
	-delta_h	0 
	# source	llnl.dat
5H2O + 3UO2+2 = (UO2)3(OH)5+ +5H+
	log_k	-15.5862
	-delta_h	97.1056 kJ/mol 
	# source	llnl.dat
4H2O + 3UO2+2 + HCO3- = (UO2)3(OH)5CO2+ +4H+
	log_k	-9.6194
	-delta_h	0 
	# source	llnl.dat
7H2O + 3UO2+2 = (UO2)3(OH)7- +7H+
	log_k	-31.0508
	-delta_h	0 
	# source	llnl.dat
3UO2+2 + 3H2O + HCO3- = (UO2)3O(OH)2(HCO3)+ +4H+
	log_k	-9.7129
	-delta_h	0 
	# source	llnl.dat
7H2O + 4UO2+2 = (UO2)4(OH)7+ +7H+
	log_k	-21.9508
	-delta_h	0 
	# source	llnl.dat
2VO+2 + 2H2O = (VO)2(OH)2+2 +2H+
	log_k	-6.67
	-delta_h	0 
	# source	llnl.dat
HAcetate = Acetate- + H+
	log_k	-4.7572
	-delta_h	0 
	# source	llnl.dat
2HAcetate + Ag+ = Ag(Acetate)2- +2H+
	log_k	-8.8716
	-delta_h	0 
	# source	llnl.dat
2HCO3- + Ag+ = Ag(CO3)2-3 +2H+
	log_k	-18.5062
	-delta_h	1.34306 kJ/mol 
	# source	llnl.dat
Ag+ + HAcetate = AgAcetate +H+
	log_k	-4.0264
	-delta_h	-3.4518 kJ/mol 
	# source	llnl.dat
HCO3- + Ag+ = AgCO3- +H+
	log_k	-7.6416
	-delta_h	-8.27177 kJ/mol 
	# source	llnl.dat
Cl- + Ag+ = AgCl
	log_k	3.2971
	-delta_h	-15.1126 kJ/mol 
	# source	llnl.dat
2Cl- + Ag+ = AgCl2-
	log_k	5.2989
	-delta_h	-27.3592 kJ/mol 
	# source	llnl.dat
3Cl- + Ag+ = AgCl3-2
	log_k	5.131
	-delta_h	-47.7645 kJ/mol 
	# source	llnl.dat
4Cl- + Ag+ = AgCl4-3
	log_k	3.805
	-delta_h	-32.4804 kJ/mol 
	# source	llnl.dat
F- + Ag+ = AgF
	log_k	-0.1668
	-delta_h	-9.298 kJ/mol 
	# source	llnl.dat
NO3- + Ag+ = AgNO3
	log_k	-0.1979
	-delta_h	4.45178 kJ/mol 
	# source	llnl.dat
2HAcetate + Al+3 = Al(Acetate)2+ +2H+
	log_k	-5.595
	-delta_h	-46.8566 kJ/mol 
	# source	llnl.dat
2H2O + Al+3 = Al(OH)2+ +2H+
	log_k	-10.5945
	-delta_h	98.2822 kJ/mol 
	# source	llnl.dat
2SO4-2 + Al+3 = Al(SO4)2-
	log_k	4.9
	-delta_h	0 
	# source	llnl.dat
28H2O + 13Al+3 = Al13O4(OH)24+7 +32H+
	log_k	-98.73
	-delta_h	0 
	# source	llnl.dat
2H2O + 2Al+3 = Al2(OH)2+4 +2H+
	log_k	-7.6902
	-delta_h	0 
	# source	llnl.dat
4H2O + 3Al+3 = Al3(OH)4+5 +4H+
	log_k	-13.8803
	-delta_h	0 
	# source	llnl.dat
Al+3 + HAcetate = AlAcetate+2 +H+
	log_k	-2.6923
	-delta_h	-18.1962 kJ/mol 
	# source	llnl.dat
F- + Al+3 = AlF+2
	log_k	7.0
	-delta_h	0 
	# source	llnl.dat
2F- + Al+3 = AlF2+
	log_k	12.6
	-delta_h	0 
	# source	llnl.dat
3F- + Al+3 = AlF3
	log_k	16.7
	-delta_h	0 
	# source	llnl.dat
4F- + Al+3 = AlF4-
	log_k	19.1
	-delta_h	0 
	# source	llnl.dat
HPO4-2 + H+ + Al+3 = AlH2PO4+2
	log_k	3.1
	-delta_h	0 
	# source	llnl.dat
HPO4-2 + Al+3 = AlHPO4+
	log_k	7.4
	-delta_h	0 
	# source	llnl.dat
2H2O + Al+3 = AlO2- +4H+
	log_k	-22.8833
	-delta_h	180.899 kJ/mol 
	# source	llnl.dat
H2O + Al+3 = AlOH+2 +H+
	log_k	-4.9571
	-delta_h	49.798 kJ/mol 
	# source	llnl.dat
SO4-2 + Al+3 = AlSO4+
	log_k	3.01
	-delta_h	0 
	# source	llnl.dat
2HCO3- + Am+3 = Am(CO3)2- +2H+
	log_k	-8.3868
	-delta_h	0 
	# source	llnl.dat
3HCO3- + Am+3 = Am(CO3)3-3 +3H+
	log_k	-15.8302
	-delta_h	0 
	# source	llnl.dat
5HCO3- + Am+4 = Am(CO3)5-6 +5H+
	log_k	-12.409
	-delta_h	0 
	# source	llnl.dat
2H2O + Am+3 = Am(OH)2+ +2H+
	log_k	-14.1145
	-delta_h	0 
	# source	llnl.dat
3H2O + Am+3 = Am(OH)3 +3H+
	log_k	-25.7218
	-delta_h	0 
	# source	llnl.dat
2SO4-2 + Am+3 = Am(SO4)2-
	log_k	5.2407
	-delta_h	0 
	# source	llnl.dat
HCO3- + Am+3 = AmCO3+ +H+
	log_k	-2.5434
	-delta_h	0 
	# source	llnl.dat
Cl- + Am+3 = AmCl+2
	log_k	1.0374
	-delta_h	0 
	# source	llnl.dat
F- + Am+3 = AmF+2
	log_k	3.3601
	-delta_h	0 
	# source	llnl.dat
2F- + Am+3 = AmF2+
	log_k	5.7204
	-delta_h	0 
	# source	llnl.dat
HPO4-2 + H+ + Am+3 = AmH2PO4+2
	log_k	11.4119
	-delta_h	0 
	# source	llnl.dat
N3- + Am+3 = AmN3+2
	log_k	1.6699
	-delta_h	0 
	# source	llnl.dat
NO3- + Am+3 = AmNO3+2
	log_k	1.3104
	-delta_h	0 
	# source	llnl.dat
H2O + Am+3 = AmOH+2 +H+
	log_k	-6.4072
	-delta_h	0 
	# source	llnl.dat
SO4-2 + Am+3 = AmSO4+
	log_k	3.7703
	-delta_h	0 
	# source	llnl.dat
H2AsO3- + H+ = As(OH)3
	log_k	9.2048
	-delta_h	-27.4054 kJ/mol 
	# source	llnl.dat
H2AsO3- = AsO2- +H2O
	log_k	0.0111
	-delta_h	0 
	# source	llnl.dat
H2AsO3- = AsO2OH-2 +H+
	log_k	-11.0171
	-delta_h	25.514 kJ/mol 
	# source	llnl.dat
H2AsO4- + F- = AsO3F-2 +H2O
	log_k	40.2451
	-delta_h	0 
	# source	llnl.dat
H2AsO4- = AsO4-3 +2H+
	log_k	-18.3604
	-delta_h	21.4198 kJ/mol 
	# source	llnl.dat
2HAcetate + Au+ = Au(Acetate)2- +2H+
	log_k	-9.0013
	-delta_h	-8.91192 kJ/mol 
	# source	llnl.dat
Au+ + HAcetate = AuAcetate +H+
	log_k	-4.3174
	-delta_h	0.87864 kJ/mol 
	# source	llnl.dat
2B(OH)3 = B2O(OH)5- +H+
	log_k	-18.6851
	-delta_h	0 
	# source	llnl.dat
2F- + H+ + B(OH)3 = BF2(OH)2- +H2O
	log_k	6.6174
	-delta_h	0 
	# source	llnl.dat
3F- + 2H+ + B(OH)3 = BF3OH- +2H2O
	log_k	13.1908
	-delta_h	-178.577 kJ/mol 
	# source	llnl.dat
4F- + 3H+ + B(OH)3 = BF4- +3H2O
	log_k	18.0049
	-delta_h	-16.4473 kJ/mol 
	# source	llnl.dat
B(OH)3 = BO2- +H+ +H2O
	log_k	-9.2449
	-delta_h	16.3302 kJ/mol 
	# source	llnl.dat
2HAcetate + Ba+2 = Ba(Acetate)2 +2H+
	log_k	-8.0118
	-delta_h	11.255 kJ/mol 
	# source	llnl.dat
O_phthalate-2 + Ba+2 = Ba(O_phthalate)
	log_k	2.33
	-delta_h	0 
	# source	llnl.dat
H2O + Ba+2 + B(OH)3 = BaB(OH)4+ +H+
	log_k	-7.8012
	-delta_h	0 
	# source	llnl.dat
Ba+2 + HAcetate = BaAcetate+ +H+
	log_k	-3.7677
	-delta_h	7.322 kJ/mol 
	# source	llnl.dat
HCO3- + Ba+2 = BaCO3 +H+
	log_k	-7.6834
	-delta_h	31.5808 kJ/mol 
	# source	llnl.dat