
NAMED_EXPRESSIONS
#
# formation of O2 from H2O
# 2H2O =  O2 + 4H+ + 4e-
#
    Log_K_O2
        log_k      -85.9951
        -delta_H	559.543	kJ/mol	# Calculated enthalpy of reaction	O2
#	Enthalpy of formation:	-2.9 kcal/mol
            -analytic   38.0229    7.99407E-03   -2.7655e+004  -1.4506e+001  199838.45
#	Range:  0-300

SOLUTION_MASTER_SPECIES
#element	master species	alkalinity	gfw|formula	gfw of element	source
Alkalinity	CO3-2	1	Ca0.5(CO3)0.5	50.05	#pitzer.dat	False
B	B(OH)3	0	B	10.81	#pitzer.dat	False
Ba	Ba+2	0	Ba	137.33	#pitzer.dat	False
Br	Br-	0	Br	79.904	#pitzer.dat	False
C	CO3-2	2	HCO3	12.0111	#pitzer.dat	False
C(+4)	CO3-2	2	HCO3	12.0111	#pitzer.dat	False
Ca	Ca+2	0	Ca	40.08	#pitzer.dat	False
Cl	Cl-	0	Cl	35.453	#pitzer.dat	False
E	e-	0	0.0	0.0	#pitzer.dat	False
Fe	Fe+2	0	Fe	55.847	#pitzer.dat	False
H	H+	-1	H	1.008	#pitzer.dat	False
H(+1)	H+	-1	0.0	None	#pitzer.dat	False
K	K+	0	K	39.0983	#pitzer.dat	False
Li	Li+	0	Li	6.941	#pitzer.dat	False
Mg	Mg+2	0	Mg	24.305	#pitzer.dat	False
#Mn(+2)	Mn+2	0	Mn	54.938	#pitzer.dat	False
Na	Na+	0	Na	22.9898	#pitzer.dat	False
O	H2O	0	O	16.00	#pitzer.dat	False
O(-2)	H2O	0	0.0	None	#pitzer.dat	False
S	SO4-2	0	SO4	32.064	#pitzer.dat	False
S(+6)	SO4-2	0	SO4	None	#pitzer.dat	False
Si	H4SiO4	0	SiO2	28.0843	#pitzer.dat	False
Sr	Sr+2	0	Sr	87.62	#pitzer.dat	False
Hdg	Hdg	0	Hdg	2.016	#pitzer.dat	False
Oxg	Oxg	0	Oxg	32	#pitzer.dat	False
Mtg	Mtg	0.0	Mtg	16.032	#pitzer.dat	False
Sg	H2Sg	1.0	H2Sg	34.08	#pitzer.dat	False
Ntg	Ntg	0	Ntg	28.0134	#pitzer.dat	False
O(0)	O2	0	O	None	#minteq.v4.dat	False
Ag	Ag+	0.0	Ag	107.868	#minteq.v4.dat	False
Al	Al+3	0.0	Al	26.9815	#minteq.v4.dat	False
As	H3AsO4	-1.0	As	74.9216	#minteq.v4.dat	False
As(+3)	H3AsO3	0.0	As	None	#minteq.v4.dat	False
As(+5)	H3AsO4	-1.0	As	None	#minteq.v4.dat	False
Be	Be+2	0.0	Be	9.0122	#minteq.v4.dat	False
Cyanide	Cyanide-	1.0	Cyanide	26.0177	#minteq.v4.dat	False
Dom_a	Dom_a	0.0	C	12.0111	#minteq.v4.dat	False
Dom_b	Dom_b	0.0	C	12.0111	#minteq.v4.dat	False
Dom_c	Dom_c	0.0	C	12.0111	#minteq.v4.dat	False
Cd	Cd+2	0.0	Cd	112.41	#minteq.v4.dat	False
Co	Co+3	-1.0	Co	58.9332	#minteq.v4.dat	False
Co(+2)	Co+2	0.0	Co	None	#minteq.v4.dat	False
Co(+3)	Co+3	-1.0	Co	None	#minteq.v4.dat	False
Cr	CrO4-2	1.0	Cr	51.996	#minteq.v4.dat	False
Cr(+2)	Cr+2	0.0	Cr	None	#minteq.v4.dat	False
Cr(+3)	Cr(OH)2+	0.0	Cr	None	#minteq.v4.dat	False
Cr(+6)	CrO4-2	1.0	Cr	None	#minteq.v4.dat	False
Cu	Cu+2	0.0	Cu	63.546	#minteq.v4.dat	False
Cu(+1)	Cu+	0.0	Cu	None	#minteq.v4.dat	False
Cu(+2)	Cu+2	0.0	Cu	None	#minteq.v4.dat	False
F	F-	0.0	F	18.9984	#minteq.v4.dat	False
Fe	Fe+3	-2.0	Fe	55.847	#minteq.v4.dat	False
Fe(+2)	Fe+2	0.0	Fe	None	#minteq.v4.dat	False
Fe(+3)	Fe+3	-2.0	Fe	None	#minteq.v4.dat	False
H(0)	H2	0	H	None	#minteq.v4.dat	False
Hg	Hg(OH)2	0.0	Hg	200.59	#minteq.v4.dat	False
Hg(0)	Hg	0.0	Hg	None	#minteq.v4.dat	False
Hg(+1)	Hg2+2	0.0	Hg	None	#minteq.v4.dat	False
Hg(+2)	Hg(OH)2	0.0	Hg	None	#minteq.v4.dat	False
I	I-	0.0	I	126.904	#minteq.v4.dat	False
Mn	Mn+3	0.0	Mn	54.938	#minteq.v4.dat	False
Mn(+2)	Mn+2	0.0	Mn	None	#minteq.v4.dat	False
Mn(+3)	Mn+3	0.0	Mn	None	#minteq.v4.dat	False
Mn(+6)	MnO4-2	0.0	Mn	None	#minteq.v4.dat	False
Mn(+7)	MnO4-	0.0	Mn	None	#minteq.v4.dat	False
Mo	MoO4-2	0.0	Mo	95.94	#minteq.v4.dat	False
N	NO3-	0.0	N	14.0067	#minteq.v4.dat	False
N(-3)	NH4+	0.0	N	None	#minteq.v4.dat	False
N(+3)	NO2-	0.0	N	None	#minteq.v4.dat	False
N(+5)	NO3-	0.0	N	None	#minteq.v4.dat	False
Ni	Ni+2	0.0	Ni	58.69	#minteq.v4.dat	False
P	PO4-3	2.0	P	30.9738	#minteq.v4.dat	False
Pb	Pb+2	0.0	Pb	207.2	#minteq.v4.dat	False
S(-2)	HS-	1.0	S	None	#minteq.v4.dat	False
Sb	Sb(OH)6-	0.0	Sb	121.75	#minteq.v4.dat	False
Sb(+3)	Sb(OH)3	0.0	Sb	None	#minteq.v4.dat	False
Sb(+5)	Sb(OH)6-	0.0	Sb	None	#minteq.v4.dat	False
Se	SeO4-2	0.0	Se	78.96	#minteq.v4.dat	False
Se(-2)	HSe-	0.0	Se	None	#minteq.v4.dat	False
Se(+4)	HSeO3-	0.0	Se	None	#minteq.v4.dat	False
Se(+6)	SeO4-2	0.0	Se	None	#minteq.v4.dat	False
Sn	Sn(OH)6-2	0.0	Sn	118.71	#minteq.v4.dat	False
Sn(+2)	Sn(OH)2	0.0	Sn	None	#minteq.v4.dat	False
Sn(+4)	Sn(OH)6-2	0.0	Sn	None	#minteq.v4.dat	False
Tl	Tl(OH)3	0.0	Tl	204.383	#minteq.v4.dat	False
Tl(+1)	Tl+	0.0	Tl	None	#minteq.v4.dat	False
Tl(+3)	Tl(OH)3	0.0	Tl	None	#minteq.v4.dat	False
U	UO2+2	0.0	U	238.029	#minteq.v4.dat	False
U(+3)	U+3	0.0	U	None	#minteq.v4.dat	False
U(+4)	U+4	-4.0	U	None	#minteq.v4.dat	False
U(+5)	UO2+	0.0	U	None	#minteq.v4.dat	False
U(+6)	UO2+2	0.0	U	None	#minteq.v4.dat	False
V	VO2+	-2.0	V	50.94	#minteq.v4.dat	False
V(+2)	V+2	0.0	V	None	#minteq.v4.dat	False
V(+3)	V+3	-3.0	V	None	#minteq.v4.dat	False
V(+4)	VO+2	0.0	V	None	#minteq.v4.dat	False
V(+5)	VO2+	-2.0	V	None	#minteq.v4.dat	False
Zn	Zn+2	0.0	Zn	65.39	#minteq.v4.dat	False
Benzoate	Benzoate-	0.0	121.116	121.116	#minteq.v4.dat	False
Phenylacetate	Phenylacetate-	0.0	135.142	135.142	#minteq.v4.dat	False
Isophthalate	Isophthalate-2	0.0	164.117	164.117	#minteq.v4.dat	False
Diethylamine	Diethylamine	1.0	73.138	73.138	#minteq.v4.dat	False
Butylamine	Butylamine	1.0	73.138	73.138	#minteq.v4.dat	False
Methylamine	Methylamine	1.0	31.057	31.057	#minteq.v4.dat	False
Dimethylamine	Dimethylamine	1.0	45.084	45.084	#minteq.v4.dat	False
Hexylamine	Hexylamine	1.0	101.192	101.192	#minteq.v4.dat	False
Ethylenediamine	Ethylenediamine	2.0	60.099	60.099	#minteq.v4.dat	False
Propylamine	Propylamine	1.0	59.111	59.111	#minteq.v4.dat	False
Isopropylamine	Isopropylamine	1.0	59.111	59.111	#minteq.v4.dat	False
Trimethylamine	Trimethylamine	1.0	59.111	59.111	#minteq.v4.dat	False
Citrate	Citrate-3	2.0	189.102	189.102	#minteq.v4.dat	False
Nta	Nta-3	1.0	188.117	188.117	#minteq.v4.dat	False
Edta	Edta-4	2.0	288.214	288.214	#minteq.v4.dat	False
Propionate	Propionate-	1.0	73.072	73.072	#minteq.v4.dat	False
Butyrate	Butyrate-	1.0	87.098	87.098	#minteq.v4.dat	False
Isobutyrate	Isobutyrate-	1.0	87.098	87.098	#minteq.v4.dat	False
Two_picoline	Two_picoline	1.0	93.128	93.128	#minteq.v4.dat	False
Three_picoline	Three_picoline	1.0	93.128	93.128	#minteq.v4.dat	False
Four_picoline	Four_picoline	1.0	93.128	93.128	#minteq.v4.dat	False
Formate	Formate-	0.0	45.018	45.018	#minteq.v4.dat	False
Isovalerate	Isovalerate-	1.0	101.125	101.125	#minteq.v4.dat	False
Valerate	Valerate-	1.0	101.125	101.125	#minteq.v4.dat	False
Acetate	Acetate-	1.0	59.045	59.045	#minteq.v4.dat	False
Tartarate	Tartarate-2	0.0	148.072	148.072	#minteq.v4.dat	False
Glycine	Glycine-	1.0	74.059	74.059	#minteq.v4.dat	False
Salicylate	Salicylate-2	1.0	136.107	136.107	#minteq.v4.dat	False
Glutamate	Glutamate-2	1.0	145.115	145.115	#minteq.v4.dat	False
Phthalate	Phthalate-2	1.0	164.117	164.117	#minteq.v4.dat	False

SOLUTION_SPECIES
B(OH)3 = B(OH)3
	log_k 0.0
CO3-2 + H+ = HCO3-
	log_k	10.3393
	-delta_h	-3.561 kcal 
	dw	1.18e-09 0.0 1.43 1e-10 
	Vm	8.54 0.0 -11.7 0.0 1.6 0.0 0.0 116.0 0.0 1.0 
	# source	pitzer.dat
CO3-2 + 2 H+ = CO2 + H2O
	log_k	16.6767
	-delta_h	-5.738 kcal 
	dw	1.92e-09 
	Vm	7.29 0.92 2.07 -1.23 -1.6 
	# source	pitzer.dat
SO4-2 + H+ = HSO4-
	log_k	1.979
	-delta_h	4.91 kcal 
	dw	1.33e-09 
	Vm	8.2 9.259 2.1108 -3.1618 1.1748 0.0 -0.3 15.0 0.0 1.0 
	# source	pitzer.dat
H2Sg = HSg- + H+
	log_k	-6.994
	-delta_h	5.30 kcal 
	dw	1.73e-09 
	Vm	5.0119 4.9799 3.4765 -2.9849 1.441 
	# source	pitzer.dat
B(OH)3 + H2O = B(OH)4- + H+
	log_k	-9.239
	-delta_h	0 kcal 
	# source	pitzer.dat
3B(OH)3 = B3O3(OH)4- + 2H2O + H+
	log_k	-7.528
	-delta_h	0 kcal 
	# source	pitzer.dat
4B(OH)3 = B4O5(OH)4-2 + 3H2O + 2H+
	log_k	-16.134
	-delta_h	0 kcal 
	# source	pitzer.dat
Ca+2 + B(OH)3 + H2O = CaB(OH)4+ + H+
	log_k	-7.589
	-delta_h	0 kcal 
	# source	pitzer.dat
Mg+2 + B(OH)3 + H2O = MgB(OH)4+ + H+
	log_k	-7.84
	-delta_h	0 kcal 
	# source	pitzer.dat
Mg+2 + H2O = MgOH+ + H+
	log_k	-11.809
	-delta_h	15.419 kcal 
	# source	pitzer.dat
Mg+2 + CO3-2 = MgCO3
	log_k	2.928
	-delta_h	2.535 kcal 
	dw	4.21e-10 
	Vm	-0.5837 -9.2067 9.3687 -2.3984 -0.03 
	# source	pitzer.dat
H4SiO4 = H3SiO4- + H+
	log_k	-9.83
	Vm	7.94 1.0881 5.3224 -2.824 1.4767 
	# source	pitzer.dat
H4SiO4 = H2SiO4-2 + 2 H+
	log_k	-23.0
	# source	pitzer.dat
e- = e-
	log_k	0.0
	# source	minteq.v4.dat
H2O = H2O
	log_k	0.0
	# source	minteq.v4.dat
Ag+ = Ag+
	log_k	0.0
	# source	minteq.v4.dat
Al+3 = Al+3
	log_k	0.0
	# source	minteq.v4.dat
H3AsO4 = H3AsO4
	log_k	0.0
	# source	minteq.v4.dat
H3BO3 = H3BO3
	log_k	0.0
	# source	minteq.v4.dat
Ba+2 = Ba+2
	log_k	0.0
	# source	minteq.v4.dat
Be+2 = Be+2
	log_k	0.0
	# source	minteq.v4.dat
Br- = Br-
	log_k	0.0
	# source	minteq.v4.dat
CO3-2 = CO3-2
	log_k	0.0
	# source	minteq.v4.dat
Cyanide- = Cyanide-
	log_k	0.0
	# source	minteq.v4.dat
Dom_a = Dom_a
	log_k	0.0
	# source	minteq.v4.dat
Dom_b = Dom_b
	log_k	0.0
	# source	minteq.v4.dat
Dom_c = Dom_c
	log_k	0.0
	# source	minteq.v4.dat
Ca+2 = Ca+2
	log_k	0.0
	# source	minteq.v4.dat
Cd+2 = Cd+2
	log_k	0.0
	# source	minteq.v4.dat
Cl- = Cl-
	log_k	0.0
	# source	minteq.v4.dat
Co+3 = Co+3
	log_k	0.0
	# source	minteq.v4.dat
CrO4-2 = CrO4-2
	log_k	0.0
	# source	minteq.v4.dat
Cu+2 = Cu+2
	log_k	0.0
	# source	minteq.v4.dat
F- = F-
	log_k	0.0
	# source	minteq.v4.dat
Fe+3 = Fe+3
	log_k	0.0
	# source	minteq.v4.dat
H+ = H+
	log_k	0.0
	# source	minteq.v4.dat
Hg(OH)2 = Hg(OH)2
	log_k	0.0
	# source	minteq.v4.dat
I- = I-
	log_k	0.0
	# source	minteq.v4.dat
K+ = K+
	log_k	0.0
	# source	minteq.v4.dat
Li+ = Li+
	log_k	0.0
	# source	minteq.v4.dat
Mg+2 = Mg+2
	log_k	0.0
	# source	minteq.v4.dat
Mn+3 = Mn+3
	log_k	0.0
	# source	minteq.v4.dat
MoO4-2 = MoO4-2
	log_k	0.0
	# source	minteq.v4.dat
NO3- = NO3-
	log_k	0.0
	# source	minteq.v4.dat
Na+ = Na+
	log_k	0.0
	# source	minteq.v4.dat
Ni+2 = Ni+2
	log_k	0.0
	# source	minteq.v4.dat
PO4-3 = PO4-3
	log_k	0.0
	# source	minteq.v4.dat
Pb+2 = Pb+2
	log_k	0.0
	# source	minteq.v4.dat
SO4-2 = SO4-2
	log_k	0.0
	# source	minteq.v4.dat
Sb(OH)6- = Sb(OH)6-
	log_k	0.0
	# source	minteq.v4.dat
SeO4-2 = SeO4-2
	log_k	0.0
	# source	minteq.v4.dat
H4SiO4 = H4SiO4
	log_k	0.0
	# source	minteq.v4.dat
Sn(OH)6-2 = Sn(OH)6-2
	log_k	0.0
	# source	minteq.v4.dat
Sr+2 = Sr+2
	log_k	0.0
	# source	minteq.v4.dat
Tl(OH)3 = Tl(OH)3
	log_k	0.0
	# source	minteq.v4.dat
UO2+2 = UO2+2
	log_k	0.0
	# source	minteq.v4.dat
VO2+ = VO2+
	log_k	0.0
	# source	minteq.v4.dat
Benzoate- = Benzoate-
	log_k	0.0
	# source	minteq.v4.dat
Phenylacetate- = Phenylacetate-
	log_k	0.0
	# source	minteq.v4.dat
Isophthalate-2 = Isophthalate-2
	log_k	0.0
	# source	minteq.v4.dat
Zn+2 = Zn+2
	log_k	0.0
	# source	minteq.v4.dat
Diethylamine = Diethylamine
	log_k	0.0
	# source	minteq.v4.dat
Butylamine = Butylamine
	log_k	0.0
	# source	minteq.v4.dat
Methylamine = Methylamine
	log_k	0.0
	# source	minteq.v4.dat
Dimethylamine = Dimethylamine
	log_k	0.0
	# source	minteq.v4.dat
Hexylamine = Hexylamine
	log_k	0.0
	# source	minteq.v4.dat
Ethylenediamine = Ethylenediamine
	log_k	0.0
	# source	minteq.v4.dat
Propylamine = Propylamine
	log_k	0.0
	# source	minteq.v4.dat
Isopropylamine = Isopropylamine
	log_k	0.0
	# source	minteq.v4.dat
Trimethylamine = Trimethylamine
	log_k	0.0
	# source	minteq.v4.dat
Citrate-3 = Citrate-3
	log_k	0.0
	# source	minteq.v4.dat
Nta-3 = Nta-3
	log_k	0.0
	# source	minteq.v4.dat
Edta-4 = Edta-4
	log_k	0.0
	# source	minteq.v4.dat
Propionate- = Propionate-
	log_k	0.0
	# source	minteq.v4.dat
Butyrate- = Butyrate-
	log_k	0.0
	# source	minteq.v4.dat
Isobutyrate- = Isobutyrate-
	log_k	0.0
	# source	minteq.v4.dat
Two_picoline = Two_picoline
	log_k	0.0
	# source	minteq.v4.dat
Three_picoline = Three_picoline
	log_k	0.0
	# source	minteq.v4.dat
Four_picoline = Four_picoline
	log_k	0.0
	# source	minteq.v4.dat
Formate- = Formate-
	log_k	0.0
	# source	minteq.v4.dat
Isovalerate- = Isovalerate-
	log_k	0.0
	# source	minteq.v4.dat
Valerate- = Valerate-
	log_k	0.0
	# source	minteq.v4.dat
Acetate- = Acetate-
	log_k	0.0
	# source	minteq.v4.dat
Tartarate-2 = Tartarate-2
	log_k	0.0
	# source	minteq.v4.dat
Glycine- = Glycine-
	log_k	0.0
	# source	minteq.v4.dat
Salicylate-2 = Salicylate-2
	log_k	0.0
	# source	minteq.v4.dat
Glutamate-2 = Glutamate-2
	log_k	0.0
	# source	minteq.v4.dat
Phthalate-2 = Phthalate-2
	log_k	0.0
	# source	minteq.v4.dat
Fe+3 + e- = Fe+2
	log_k	13.032
	-delta_h	-42.7 kJ 
	gamma	0 0 
	# source	minteq.v4.dat
H3AsO4 + 2e- + 2H+ = H3AsO3 + H2O
	log_k	18.898
	-delta_h	-125.6 kJ 
	gamma	0 0 
	# source	minteq.v4.dat
Sb(OH)6- + 2e- + 3H+ = Sb(OH)3 + 3H2O
	log_k	24.31
	-delta_h	0 kJ 
	gamma	0 0 
	# source	minteq.v4.dat
UO2+2 + 3e- + 4H+ = U+3 + 2H2O
	log_k	0.42
	-delta_h	-42 kJ 
	gamma	0 0 
	# source	minteq.v4.dat
UO2+2 + 2e- + 4H+ = U+4 + 2H2O
	log_k	9.216
	-delta_h	-144.1 kJ 
	gamma	0 0 
	# source	minteq.v4.dat
UO2+2 + e- = UO2+
	log_k	2.785
	-delta_h	-13.8 kJ 
	gamma	0 0 
	# source	minteq.v4.dat
e- + Mn+3 = Mn+2
	log_k	25.35
	-delta_h	-107.8 kJ 
	gamma	0 0 
	# source	minteq.v4.dat
Co+3 + e- = Co+2
	log_k	32.4
	-delta_h	0 kJ 
	gamma	0 0 
	# source	minteq.v4.dat
Cu+2 + e- = Cu+
	log_k	2.69
	-delta_h	6.9 kJ 
	gamma	0 0 
	# source	minteq.v4.dat
V+3 + e- = V+2
	log_k	-4.31
	-delta_h	0 kJ 
	gamma	0 0 
	# source	minteq.v4.dat
VO+2 + e- + 2H+ = V+3 + H2O
	log_k	5.696
	-delta_h	0 kJ 
	gamma	0 0 
	# source	minteq.v4.dat
VO2+ + e- + 2H+ = VO+2 + H2O
	log_k	16.903
	-delta_h	-122.7 kJ 
	gamma	0 0 
	# source	minteq.v4.dat
SO4-2 + 9H+ + 8e- = HS- + 4H2O
	log_k	33.66
	-delta_h	-60.14 kJ 
	gamma	0 0 
	# source	minteq.v4.dat
Sn(OH)6-2 + 2e- + 4H+ = Sn(OH)2 + 4H2O
	log_k	19.2
	-delta_h	0 kJ 
	gamma	0 0 
	# source	minteq.v4.dat
Tl(OH)3 + 2e- + 3H+ = Tl+ + 3H2O
	log_k	45.55
	-delta_h	0 kJ 
	gamma	0 0 
	# source	minteq.v4.dat
HSeO3- + 6e- + 6H+ = HSe- + 3H2O
	log_k	44.86
	-delta_h	0 kJ 
	gamma	0 0 
	# source	minteq.v4.dat
SeO4-2 + 2e- + 3H+ = HSeO3- + H2O
	log_k	36.308
	-delta_h	-201.2 kJ 
	gamma	0 0 
	# source	minteq.v4.dat
0.5Hg2+2 + e- = Hg
	log_k	6.5667
	-delta_h	-45.735 kJ 
	gamma	0 0 
	# source	minteq.v4.dat
2Hg(OH)2 + 4H+ + 2e- = Hg2+2 + 4H2O
	log_k	43.185
	-delta_h	-63.59 kJ 
	gamma	0 0 
	# source	minteq.v4.dat
Cr(OH)2+ + 2H+ + e- = Cr+2 + 2H2O
	log_k	2.947
	-delta_h	6.36 kJ 
	gamma	0 0 
	# source	minteq.v4.dat
CrO4-2 + 6H+ + 3e- = Cr(OH)2+ + 2H2O
	log_k	67.376
	-delta_h	-103 kJ 
	gamma	0 0 
	# source	minteq.v4.dat
2H2O = O2 + 4H+ + 4e-
	log_k	-85.9951
	# source	minteq.v4.dat
2 H+ + 2 e- = H2
	log_k	-3.15
	-delta_h	-1.759 kcal 
	# source	minteq.v4.dat
NO3- + 2 H+ + 2 e- = NO2- + H2O
	log_k	28.57
	-delta_h	-43.760 kcal 
	gamma	3.0000 0.0000 
	# source	minteq.v4.dat
NO3- + 10 H+ + 8 e- = NH4+ + 3 H2O
	log_k	119.077
	-delta_h	-187.055 kcal 
	gamma	2.5000 0.0000 
	# source	minteq.v4.dat
Mn+2 + 4H2O = MnO4- + 8H+ + 5e-
	log_k	-127.794
	-delta_h	822.67 kJ 
	gamma	3 0 
	# source	minteq.v4.dat
Mn+2 + 4H2O = MnO4-2 + 8H+ + 4e-
	log_k	-118.422
	-delta_h	711.07 kJ 
	gamma	5 0 
	# source	minteq.v4.dat
HS- = S-2 + H+
	log_k	-17.3
	-delta_h	49.4 kJ 
	gamma	5 0 
	# source	minteq.v4.dat
HSe- = Se-2 + H+
	log_k	-15.0
	-delta_h	48.116 kJ 
	gamma	0 0 
	# source	minteq.v4.dat
Tl(OH)3 + 3H+ = Tl+3 + 3H2O
	log_k	3.291
	-delta_h	0 kJ 
	gamma	0 0 
	# source	minteq.v4.dat
Hg(OH)2 + 2H+ = Hg+2 + 2H2O
	log_k	6.194
	-delta_h	-39.72 kJ 
	gamma	0 0 
	# source	minteq.v4.dat
Cr(OH)2+ + 2H+ = Cr+3 + 2H2O
	log_k	9.5688
	-delta_h	-129.62 kJ 
	gamma	0 0 
	# source	minteq.v4.dat
H2O = OH- + H+
	log_k	-13.997
	-delta_h	55.81 kJ 
	gamma	3.5 0 
	# source	minteq.v4.dat
Sn(OH)2 + 2H+ = Sn+2 + 2H2O
	log_k	7.094
	-delta_h	0 kJ 
	gamma	0 0 
	# source	minteq.v4.dat
Sn(OH)2 + H+ = SnOH+ + H2O
	log_k	3.697
	-delta_h	0 kJ 
	gamma	0 0 
	# source	minteq.v4.dat
Sn(OH)2 + H2O = Sn(OH)3- + H+
	log_k	-9.497
	-delta_h	0 kJ 
	gamma	0 0 
	# source	minteq.v4.dat
2Sn(OH)2 + 2H+ = Sn2(OH)2+2 + 2H2O
	log_k	9.394
	-delta_h	0 kJ 
	gamma	0 0 
	# source	minteq.v4.dat
3Sn(OH)2 + 2H+ = Sn3(OH)4+2 + 2H2O
	log_k	14.394
	-delta_h	0 kJ 
	gamma	0 0 
	# source	minteq.v4.dat
Sn(OH)2 = HSnO2- + H+
	log_k	-8.9347
	-delta_h	0 kJ 
	gamma	0 0 
	# source	minteq.v4.dat
Sn(OH)6-2 + 6H+ = Sn+4 + 6H2O
	log_k	21.2194
	-delta_h	0 kJ 
	gamma	0 0 
	# source	minteq.v4.dat
Sn(OH)6-2 = SnO3-2 + 3H2O
	log_k	-2.2099
	-delta_h	0 kJ 
	gamma	0 0 
	# source	minteq.v4.dat
Pb+2 + H2O = PbOH+ + H+
	log_k	-7.597
	-delta_h	0 kJ 
	gamma	0 0 
	# source	minteq.v4.dat
Pb+2 + 2H2O = Pb(OH)2 + 2H+
	log_k	-17.094
	-delta_h	0 kJ 
	gamma	0 0 
	# source	minteq.v4.dat
Pb+2 + 3H2O = Pb(OH)3- + 3H+
	log_k	-28.091
	-delta_h	0 kJ 
	gamma	0 0 
	# source	minteq.v4.dat
2Pb+2 + H2O = Pb2OH+3 + H+
	log_k	-6.397
	-delta_h	0 kJ 
	gamma	0 0 
	# source	minteq.v4.dat
3Pb+2 + 4H2O = Pb3(OH)4+2 + 4H+
	log_k	-23.888
	-delta_h	115.24 kJ 
	gamma	0 0 
	# source	minteq.v4.dat
Pb+2 + 4H2O = Pb(OH)4-2 + 4H+
	log_k	-39.699
	-delta_h	0 kJ 
	gamma	0 0 
	# source	minteq.v4.dat
4Pb+2 + 4H2O = Pb4(OH)4+4 + 4H+
	log_k	-19.988
	-delta_h	88.24 kJ 
	gamma	0 0 
	# source	minteq.v4.dat
H3BO3 + F- = BF(OH)3-
	log_k	-0.399
	-delta_h	7.7404 kJ 
	gamma	2.5 0 
	# source	minteq.v4.dat
H3BO3 + 2F- + H+ = BF2(OH)2- + H2O
	log_k	7.63
	-delta_h	6.8408 kJ 
	gamma	2.5 0 
	# source	minteq.v4.dat
H3BO3 + 3F- + 2H+ = BF3OH- + 2H2O
	log_k	13.22
	-delta_h	-20.4897 kJ 
	gamma	2.5 0 
	# source	minteq.v4.dat
Al+3 + H2O = AlOH+2 + H+
	log_k	-4.997
	-delta_h	47.81 kJ 
	gamma	5.4 0 
	# source	minteq.v4.dat
Al+3 + 2H2O = Al(OH)2+ + 2H+
	log_k	-10.094
	-delta_h	0 kJ 
	gamma	5.4 0 
	# source	minteq.v4.dat
Al+3 + 3H2O = Al(OH)3 + 3H+
	log_k	-16.791
	-delta_h	0 kJ 
	gamma	0 0 
	# source	minteq.v4.dat
Al+3 + 4H2O = Al(OH)4- + 4H+
	log_k	-22.688
	-delta_h	173.24 kJ 
	gamma	4.5 0 
	# source	minteq.v4.dat
Tl+ + H2O = TlOH + H+
	log_k	-13.207
	-delta_h	56.81 kJ 
	gamma	0 0 
	# source	minteq.v4.dat
Tl(OH)3 + 2H+ = TlOH+2 + 2H2O
	log_k	2.694
	-delta_h	0 kJ 
	gamma	0 0 
	# source	minteq.v4.dat
Tl(OH)3 + H+ = Tl(OH)2+ + H2O
	log_k	1.897
	-delta_h	0 kJ 
	gamma	0 0 
	# source	minteq.v4.dat
Tl(OH)3 + H2O = Tl(OH)4- + H+
	log_k	-11.697
	-delta_h	0 kJ 
	gamma	0 0 
	# source	minteq.v4.dat
Zn+2 + H2O = ZnOH+ + H+
	log_k	-8.997
	-delta_h	55.81 kJ 
	gamma	0 0 
	# source	minteq.v4.dat
Zn+2 + 2H2O = Zn(OH)2 + 2H+
	log_k	-17.794
	-delta_h	0 kJ 
	gamma	0 0 
	# source	minteq.v4.dat
Zn+2 + 3H2O = Zn(OH)3- + 3H+
	log_k	-28.091
	-delta_h	0 kJ 
	gamma	0 0 
	# source	minteq.v4.dat
Zn+2 + 4H2O = Zn(OH)4-2 + 4H+
	log_k	-40.488
	-delta_h	0 kJ 
	gamma	0 0 
	# source	minteq.v4.dat
Cd+2 + H2O = CdOH+ + H+
	log_k	-10.097
	-delta_h	54.81 kJ 
	gamma	0 0 
	# source	minteq.v4.dat
Cd+2 + 2H2O = Cd(OH)2 + 2H+
	log_k	-20.294
	-delta_h	0 kJ 
	gamma	0 0 
	# source	minteq.v4.dat
Cd+2 + 3H2O = Cd(OH)3- + 3H+
	log_k	-32.505
	-delta_h	0 kJ 
	gamma	0 0 
	# source	minteq.v4.dat
Cd+2 + 4H2O = Cd(OH)4-2 + 4H+
	log_k	-47.288
	-delta_h	0 kJ 
	gamma	0 0 
	# source	minteq.v4.dat
2Cd+2 + H2O = Cd2OH+3 + H+
	log_k	-9.397
	-delta_h	45.81 kJ 
	gamma	0 0 
	# source	minteq.v4.dat
Hg(OH)2 + H+ = HgOH+ + H2O
	log_k	2.797
	-delta_h	-18.91 kJ 
	gamma	0 0 
	# source	minteq.v4.dat
Hg(OH)2 + H2O = Hg(OH)3- + H+
	log_k	-14.897
	-delta_h	0 kJ 
	gamma	0 0 
	# source	minteq.v4.dat
Cu+2 + H2O = CuOH+ + H+
	log_k	-7.497
	-delta_h	35.81 kJ 
	gamma	4 0 
	# source	minteq.v4.dat
Cu+2 + 2H2O = Cu(OH)2 + 2H+
	log_k	-16.194
	-delta_h	0 kJ 
	gamma	0 0 
	# source	minteq.v4.dat
Cu+2 + 3H2O = Cu(OH)3- + 3H+
	log_k	-26.879
	-delta_h	0 kJ 
	gamma	0 0 
	# source	minteq.v4.dat
Cu+2 + 4H2O = Cu(OH)4-2 + 4H+
	log_k	-39.98
	-delta_h	0 kJ 
	gamma	0 0 
	# source	minteq.v4.dat
2Cu+2 + 2H2O = Cu2(OH)2+2 + 2H+
	log_k	-10.594
	-delta_h	76.62 kJ 
	gamma	0 0 
	# source	minteq.v4.dat
Ag+ + H2O = AgOH + H+
	log_k	-11.997
	-delta_h	0 kJ 
	gamma	0 0 
	# source	minteq.v4.dat
Ag+ + 2H2O = Ag(OH)2- + 2H+
	log_k	-24.004
	-delta_h	0 kJ 
	gamma	0 0 
	# source	minteq.v4.dat
Ni+2 + H2O = NiOH+ + H+
	log_k	-9.897
	-delta_h	51.81 kJ 
	gamma	0 0 
	# source	minteq.v4.dat
Ni+2 + 2H2O = Ni(OH)2 + 2H+
	log_k	-18.994
	-delta_h	0 kJ 
	gamma	0 0 
	# source	minteq.v4.dat
Ni+2 + 3H2O = Ni(OH)3- + 3H+
	log_k	-29.991
	-delta_h	0 kJ 
	gamma	0 0 
	# source	minteq.v4.dat
Co+2 + H2O = CoOH+ + H+
	log_k	-9.697
	-delta_h	0 kJ 
	gamma	0 0 
	# source	minteq.v4.dat
Co+2 + 2H2O = Co(OH)2 + 2H+
	log_k	-18.794
	-delta_h	0 kJ 
	gamma	0 0 
	# source	minteq.v4.dat
Co+2 + 3H2O = Co(OH)3- + 3H+
	log_k	-31.491
	-delta_h	0 kJ 
	gamma	0 0 
	# source	minteq.v4.dat
Co+2 + 4H2O = Co(OH)4-2 + 4H+
	log_k	-46.288
	-delta_h	0 kJ 
	gamma	0 0 
	# source	minteq.v4.dat
2Co+2 + H2O = Co2OH+3 + H+
	log_k	-10.997
	-delta_h	0 kJ 
	gamma	0 0 
	# source	minteq.v4.dat
4Co+2 + 4H2O = Co4(OH)4+4 + 4H+
	log_k	-30.488
	-delta_h	0 kJ 
	gamma	0 0 
	# source	minteq.v4.dat
Co+2 + 2H2O = CoOOH- + 3H+
	log_k	-32.0915
	-delta_h	260.454 kJ 
	gamma	0 0 
	# source	minteq.v4.dat
Co+3 + H2O = CoOH+2 + H+
	log_k	-1.291
	-delta_h	0 kJ 
	gamma	0 0 
	# source	minteq.v4.dat
Fe+2 + H2O = FeOH+ + H+
	log_k	-9.397
	-delta_h	55.81 kJ 
	gamma	5 0 
	# source	minteq.v4.dat
Fe+2 + 2H2O = Fe(OH)2 + 2H+
	log_k	-20.494
	-delta_h	119.62 kJ 
	gamma	0 0 
	# source	minteq.v4.dat
Fe+2 + 3H2O = Fe(OH)3- + 3H+
	log_k	-28.991
	-delta_h	126.43 kJ 
	gamma	5 0 
	# source	minteq.v4.dat
Fe+3 + H2O = FeOH+2 + H+
	log_k	-2.187
	-delta_h	41.81 kJ 
	gamma	5 0 
	# source	minteq.v4.dat
Fe+3 + 2H2O = Fe(OH)2+ + 2H+
	log_k	-4.594
	-delta_h	0 kJ 
	gamma	5.4 0 
	# source	minteq.v4.dat
Fe+3 + 3H2O = Fe(OH)3 + 3H+
	log_k	-12.56
	-delta_h	103.8 kJ 
	gamma	0 0 
	# source	minteq.v4.dat
Fe+3 + 4H2O = Fe(OH)4- + 4H+
	log_k	-21.588
	-delta_h	0 kJ 
	gamma	5.4 0 
	# source	minteq.v4.dat
2Fe+3 + 2H2O = Fe2(OH)2+4 + 2H+
	log_k	-2.854
	-delta_h	57.62 kJ 
	gamma	0 0 
	# source	minteq.v4.dat
3Fe+3 + 4H2O = Fe3(OH)4+5 + 4H+
	log_k	-6.288
	-delta_h	65.24 kJ 
	gamma	0 0 
	# source	minteq.v4.dat
Mn+2 + H2O = MnOH+ + H+
	log_k	-10.597
	-delta_h	55.81 kJ 
	gamma	5 0 
	# source	minteq.v4.dat
Mn+2 + 3H2O = Mn(OH)3- + 3H+
	log_k	-34.8
	-delta_h	0 kJ 
	gamma	5 0 
	# source	minteq.v4.dat
Mn+2 + 4H2O = Mn(OH)4-2 + 4H+
	log_k	-48.288
	-delta_h	0 kJ 
	gamma	5 0 
	# source	minteq.v4.dat
Cr(OH)2+ + H+ = Cr(OH)+2 + H2O
	log_k	5.9118
	-delta_h	-77.91 kJ 
	gamma	0 0 
	# source	minteq.v4.dat
Cr(OH)2+ + H2O = Cr(OH)3 + H+
	log_k	-8.4222
	-delta_h	0 kJ 
	gamma	0 0 
	# source	minteq.v4.dat
Cr(OH)2+ + 2H2O = Cr(OH)4- + 2H+
	log_k	-17.8192
	-delta_h	0 kJ 
	gamma	0 0 
	# source	minteq.v4.dat
Cr(OH)2+ = CrO2- + 2H+
	log_k	-17.7456
	-delta_h	0 kJ 
	gamma	0 0 
	# source	minteq.v4.dat
V+2 + H2O = VOH+ + H+
	log_k	-6.487
	-delta_h	59.81 kJ 
	gamma	0 0 
	# source	minteq.v4.dat
V+3 + H2O = VOH+2 + H+
	log_k	-2.297
	-delta_h	43.81 kJ 
	gamma	0 0 
	# source	minteq.v4.dat
V+3 + 2H2O = V(OH)2+ + 2H+
	log_k	-6.274
	-delta_h	0 kJ 
	gamma	0 0 
	# source	minteq.v4.dat
V+3 + 3H2O = V(OH)3 + 3H+
	log_k	-3.0843
	-delta_h	0 kJ 
	gamma	0 0 
	# source	minteq.v4.dat
2V+3 + 2H2O = V2(OH)2+4 + 2H+
	log_k	-3.794
	-delta_h	0 kJ 
	gamma	0 0 
	# source	minteq.v4.dat
2V+3 + 3H2O = V2(OH)3+3 + 3H+
	log_k	-10.1191
	-delta_h	0 kJ 
	gamma	0 0 
	# source	minteq.v4.dat
VO+2 + 2H2O = V(OH)3+ + H+
	log_k	-5.697
	-delta_h	0 kJ 
	gamma	0 0 
	# source	minteq.v4.dat
2VO+2 + 2H2O = H2V2O4+2 + 2H+
	log_k	-6.694
	-delta_h	53.62 kJ 
	gamma	0 0 
	# source	minteq.v4.dat
U+4 + H2O = UOH+3 + H+
	log_k	-0.597
	-delta_h	47.81 kJ 
	gamma	0 0 
	# source	minteq.v4.dat
U+4 + 2H2O = U(OH)2+2 + 2H+
	log_k	-2.27
	-delta_h	74.1823 kJ 
	gamma	0 0 
	# source	minteq.v4.dat
U+4 + 3H2O = U(OH)3+ + 3H+
	log_k	-4.935
	-delta_h	94.7467 kJ 
	gamma	0 0 
	# source	minteq.v4.dat
U+4 + 4H2O = U(OH)4 + 4H+
	log_k	-8.498
	-delta_h	103.596 kJ 
	gamma	0 0 
	# source	minteq.v4.dat
U+4 + 5H2O = U(OH)5- + 5H+
	log_k	-13.12
	-delta_h	115.374 kJ 
	gamma	0 0 
	# source	minteq.v4.dat
6U+4 + 15H2O = U6(OH)15+9 + 15H+
	log_k	-17.155
	-delta_h	0 kJ 
	gamma	0 0 
	# source	minteq.v4.dat
UO2+2 + H2O = UO2OH+ + H+
	log_k	-5.897
	-delta_h	47.81 kJ 
	gamma	0 0 
	# source	minteq.v4.dat
2UO2+2 + 2H2O = (UO2)2(OH)2+2 + 2H+
	log_k	-5.574
	-delta_h	41.82 kJ 
	gamma	0 0 
	# source	minteq.v4.dat
3UO2+2 + 5H2O = (UO2)3(OH)5+ + 5H+
	log_k	-15.585
	-delta_h	108.05 kJ 
	gamma	0 0 
	# source	minteq.v4.dat
Be+2 + H2O = BeOH+ + H+
	log_k	-5.397
	-delta_h	0 kJ 
	gamma	6.5 0 
	# source	minteq.v4.dat
Be+2 + 2H2O = Be(OH)2 + 2H+
	log_k	-13.594
	-delta_h	0 kJ 
	gamma	6.5 0 
	# source	minteq.v4.dat
Be+2 + 3H2O = Be(OH)3- + 3H+
	log_k	-23.191
	-delta_h	0 kJ 
	gamma	6.5 0 
	# source	minteq.v4.dat
Be+2 + 4H2O = Be(OH)4-2 + 4H+
	log_k	-37.388
	-delta_h	0 kJ 
	gamma	6.5 0 
	# source	minteq.v4.dat
2Be+2 + H2O = Be2OH+3 + H+
	log_k	-3.177
	-delta_h	0 kJ 
	gamma	6.5 0 
	# source	minteq.v4.dat
3Be+2 + 3H2O = Be3(OH)3+3 + 3H+
	log_k	-8.8076
	-delta_h	0 kJ 
	gamma	6.5 0 
	# source	minteq.v4.dat
Ca+2 + H2O = CaOH+ + H+
	log_k	-12.697
	-delta_h	64.11 kJ 
	gamma	6 0 
	# source	minteq.v4.dat
Sr+2 + H2O = SrOH+ + H+
	log_k	-13.177
	-delta_h	60.81 kJ 
	gamma	5 0 
	# source	minteq.v4.dat
Ba+2 + H2O = BaOH+ + H+
	log_k	-13.357
	-delta_h	60.81 kJ 
	gamma	5 0 
	# source	minteq.v4.dat
H+ + F- = HF
	log_k	3.17
	-delta_h	13.3 kJ 
	gamma	0 0 
	# source	minteq.v4.dat
H+ + 2F- = HF2-
	log_k	3.75
	-delta_h	17.4 kJ 
	gamma	3.5 0 
	# source	minteq.v4.dat
2F- + 2H+ = H2F2
	log_k	6.768
	-delta_h	0 kJ 
	gamma	0 0 
	# source	minteq.v4.dat
Sb(OH)3 + F- + H+ = SbOF + 2H2O
	log_k	6.1864
	-delta_h	0 kJ 
	gamma	0 0 
	# source	minteq.v4.dat
Sb(OH)3 + F- + H+ = Sb(OH)2F + H2O
	log_k	6.1937
	-delta_h	0 kJ 
	gamma	0 0 
	# source	minteq.v4.dat
H4SiO4 + 4H+ + 6F- = SiF6-2 + 4H2O
	log_k	30.18
	-delta_h	-68 kJ 
	gamma	5 0 
	# source	minteq.v4.dat
Sn(OH)2 + 2H+ + F- = SnF+ + 2H2O
	log_k	11.582
	-delta_h	0 kJ 
	gamma	0 0 
	# source	minteq.v4.dat
Sn(OH)2 + 2H+ + 2F- = SnF2 + 2H2O
	log_k	14.386
	-delta_h	0 kJ 
	gamma	0 0 
	# source	minteq.v4.dat
Sn(OH)2 + 2H+ + 3F- = SnF3- + 2H2O
	log_k	17.206
	-delta_h	0 kJ 
	gamma	0 0 
	# source	minteq.v4.dat
Sn(OH)6-2 + 6H+ + 6F- = SnF6-2 + 6H2O
	log_k	33.5844
	-delta_h	0 kJ 
	gamma	0 0 
	# source	minteq.v4.dat
Pb+2 + F- = PbF+
	log_k	1.848
	-delta_h	0 kJ 
	gamma	0 0 
	# source	minteq.v4.dat
Pb+2 + 2F- = PbF2
	log_k	3.142
	-delta_h	0 kJ 
	gamma	0 0 
	# source	minteq.v4.dat
Pb+2 + 3F- = PbF3-
	log_k	3.42
	-delta_h	0 kJ 
	gamma	0 0 
	# source	minteq.v4.dat
Pb+2 + 4F- = PbF4-2
	log_k	3.1
	-delta_h	0 kJ 
	gamma	0 0 
	# source	minteq.v4.dat
H3BO3 + 3H+ + 4F- = BF4- + 3H2O
	log_k	19.912
	-delta_h	-18.67 kJ 
	gamma	2.5 0 
	# source	minteq.v4.dat
Al+3 + F- = AlF+2
	log_k	7.0
	-delta_h	4.6 kJ 
	gamma	5.4 0 
	# source	minteq.v4.dat
Al+3 + 2F- = AlF2+
	log_k	12.6
	-delta_h	8.3 kJ 
	gamma	5.4 0 
	# source	minteq.v4.dat
Al+3 + 3F- = AlF3
	log_k	16.7
	-delta_h	8.7 kJ 
	gamma	0 0 
	# source	minteq.v4.dat
Al+3 + 4F- = AlF4-
	log_k	19.4
	-delta_h	8.7 kJ 
	gamma	4.5 0 
	# source	minteq.v4.dat
Tl+ + F- = TlF
	log_k	0.1
	-delta_h	0 kJ 
	gamma	0 0 
	# source	minteq.v4.dat
Zn+2 + F- = ZnF+
	log_k	1.3
	-delta_h	11 kJ 
	gamma	0 0 
	# source	minteq.v4.dat
Cd+2 + F- = CdF+
	log_k	1.2
	-delta_h	5 kJ 
	gamma	0 0 
	# source	minteq.v4.dat
Cd+2 + 2F- = CdF2
	log_k	1.5
	-delta_h	0 kJ 
	gamma	0 0 
	# source	minteq.v4.dat
Hg(OH)2 + 2H+ + F- = HgF+ + 2H2O
	log_k	7.763
	-delta_h	-35.72 kJ 
	gamma	0 0 
	# source	minteq.v4.dat
Cu+2 + F- = CuF+
	log_k	1.8
	-delta_h	13 kJ 
	gamma	0 0 
	# source	minteq.v4.dat
Ag+ + F- = AgF
	log_k	0.4
	-delta_h	12 kJ 
	gamma	0 0 
	# source	minteq.v4.dat
Ni+2 + F- = NiF+
	log_k	1.4
	-delta_h	7.1 kJ 
	gamma	0 0 
	# source	minteq.v4.dat
Co+2 + F- = CoF+
	log_k	1.5
	-delta_h	9.2 kJ 
	gamma	0 0 
	# source	minteq.v4.dat
Fe+3 + F- = FeF+2
	log_k	6.04
	-delta_h	10 kJ 
	gamma	5 0 
	# source	minteq.v4.dat
Fe+3 + 2F- = FeF2+
	log_k	10.4675
	-delta_h	17 kJ 
	gamma	5 0 
	# source	minteq.v4.dat
Fe+3 + 3F- = FeF3
	log_k	13.617
	-delta_h	29 kJ 
	gamma	0 0 
	# source	minteq.v4.dat
Mn+2 + F- = MnF+
	log_k	1.6
	-delta_h	11 kJ 
	gamma	5 0 
	# source	minteq.v4.dat
Cr(OH)2+ + 2H+ + F- = CrF+2 + 2H2O
	log_k	14.7688
	-delta_h	-70.2452 kJ 
	gamma	0 0 
	# source	minteq.v4.dat
VO+2 + F- = VOF+
	log_k	3.778
	-delta_h	7.9 kJ 
	gamma	0 0 
	# source	minteq.v4.dat
VO+2 + 2F- = VOF2
	log_k	6.352
	-delta_h	14 kJ 
	gamma	0 0 
	# source	minteq.v4.dat
VO+2 + 3F- = VOF3-
	log_k	7.902
	-delta_h	20 kJ 
	gamma	0 0 
	# source	minteq.v4.dat
VO+2 + 4F- = VOF4-2
	log_k	8.508
	-delta_h	26 kJ 
	gamma	0 0 
	# source	minteq.v4.dat
VO2+ + F- = VO2F
	log_k	3.244
	-delta_h	0 kJ 
	gamma	0 0 
	# source	minteq.v4.dat
VO2+ + 2F- = VO2F2-
	log_k	5.804
	-delta_h	0 kJ 
	gamma	0 0 
	# source	minteq.v4.dat
VO2+ + 3F- = VO2F3-2
	log_k	6.9
	-delta_h	0 kJ 
	gamma	0 0 
	# source	minteq.v4.dat
VO2+ + 4F- = VO2F4-3
	log_k	6.592
	-delta_h	0 kJ 
	gamma	0 0 
	# source	minteq.v4.dat
U+4 + F- = UF+3
	log_k	9.3
	-delta_h	21.1292 kJ 
	gamma	0 0 
	# source	minteq.v4.dat
U+4 + 2F- = UF2+2
	log_k	16.4
	-delta_h	30.1248 kJ 
	gamma	0 0 
	# source	minteq.v4.dat
U+4 + 3F- = UF3+
	log_k	21.6
	-delta_h	29.9156 kJ 
	gamma	0 0 
	# source	minteq.v4.dat
U+4 + 4F- = UF4
	log_k	23.64
	-delta_h	19.2464 kJ 
	gamma	0 0 
	# source	minteq.v4.dat
U+4 + 5F- = UF5-
	log_k	25.238
	-delta_h	20.2924 kJ 
	gamma	0 0 
	# source	minteq.v4.dat
U+4 + 6F- = UF6-2
	log_k	27.718
	-delta_h	13.8072 kJ 
	gamma	0 0 
	# source	minteq.v4.dat
UO2+2 + F- = UO2F+
	log_k	5.14
	-delta_h	1 kJ 
	gamma	0 0 
	# source	minteq.v4.dat
UO2+2 + 2F- = UO2F2
	log_k	8.6
	-delta_h	2 kJ 
	gamma	0 0 
	# source	minteq.v4.dat
UO2+2 + 3F- = UO2F3-
	log_k	11.0
	-delta_h	2 kJ 
	gamma	0 0 
	# source	minteq.v4.dat
UO2+2 + 4F- = UO2F4-2
	log_k	11.9
	-delta_h	0.4 kJ 
	gamma	0 0 
	# source	minteq.v4.dat
Be+2 + F- = BeF+
	log_k	5.249
	-delta_h	0 kJ 
	gamma	0 0 
	# source	minteq.v4.dat
Be+2 + 2F- = BeF2
	log_k	9.1285
	-delta_h	-4 kJ 
	gamma	0 0 
	# source	minteq.v4.dat
Be+2 + 3F- = BeF3-
	log_k	11.9085
	-delta_h	-8 kJ 
	gamma	0 0 
	# source	minteq.v4.dat
Mg+2 + F- = MgF+
	log_k	2.05
	-delta_h	13 kJ 
	gamma	4.5 0 
	# source	minteq.v4.dat
Ca+2 + F- = CaF+
	log_k	1.038
	-delta_h	14 kJ 
	gamma	5 0 
	# source	minteq.v4.dat
Sr+2 + F- = SrF+
	log_k	0.548
	-delta_h	16 kJ 
	gamma	0 0 
	# source	minteq.v4.dat
Na+ + F- = NaF
	log_k	-0.2
	-delta_h	12 kJ 
	gamma	0 0 
	# source	minteq.v4.dat
Sn(OH)2 + 2H+ + Cl- = SnCl+ + 2H2O
	log_k	8.734
	-delta_h	0 kJ 
	gamma	0 0 
	# source	minteq.v4.dat
Sn(OH)2 + 2H+ + 2Cl- = SnCl2 + 2H2O
	log_k	9.524
	-delta_h	0 kJ 
	gamma	0 0 
	# source	minteq.v4.dat
Sn(OH)2 + 2H+ + 3Cl- = SnCl3- + 2H2O
	log_k	8.3505
	-delta_h	0 kJ 
	gamma	0 0 
	# source	minteq.v4.dat
Pb+2 + Cl- = PbCl+
	log_k	1.55
	-delta_h	8.7 kJ 
	gamma	0 0 
	# source	minteq.v4.dat
Pb+2 + 2Cl- = PbCl2
	log_k	2.2
	-delta_h	12 kJ 
	gamma	0 0 
	# source	minteq.v4.dat
Pb+2 + 3Cl- = PbCl3-