SOLUTION_MASTER_SPECIES
Alkalinity	CO3-2	1.0	Ca0.5(CO3)0.5	50.05
S	SO4-2	0	SO4	32.064
END